
---------- Begin Simulation Statistics ----------
final_tick                                 7622341000                       # Number of ticks from beginning of simulation (restored from checkpoints and never reset)
host_inst_rate                                 150085                       # Simulator instruction rate (inst/s)
host_mem_usage                                8495456                       # Number of bytes of host memory used
host_op_rate                                   150074                       # Simulator op (including micro ops) rate (op/s)
host_seconds                                     4.06                       # Real time elapsed on the host
host_tick_rate                             1875683941                       # Simulator tick rate (ticks/s)
sim_freq                                 1000000000000                       # Frequency of simulated ticks
sim_insts                                      609826                       # Number of instructions simulated
sim_ops                                        609826                       # Number of ops (including micro ops) simulated
sim_seconds                                  0.007622                       # Number of seconds simulated
sim_ticks                                  7622341000                       # Number of ticks simulated
system.cpu.branchPred.BTBCorrect                    0                       # Number of correct BTB predictions (this stat may not work properly.
system.cpu.branchPred.BTBHitPct             89.841849                       # BTB Hit Percentage
system.cpu.branchPred.BTBHits                   11816                       # Number of BTB hits
system.cpu.branchPred.BTBLookups                13152                       # Number of BTB lookups
system.cpu.branchPred.RASInCorrect                  0                       # Number of incorrect RAS predictions.
system.cpu.branchPred.condIncorrect               963                       # Number of conditional branches incorrect
system.cpu.branchPred.condPredicted             11786                       # Number of conditional branches predicted
system.cpu.branchPred.indirectHits                  6                       # Number of indirect target hits.
system.cpu.branchPred.indirectLookups             276                       # Number of indirect predictor lookups.
system.cpu.branchPred.indirectMisses              270                       # Number of indirect misses.
system.cpu.branchPred.lookups                   13516                       # Number of BP lookups
system.cpu.branchPred.usedRAS                       0                       # Number of times the RAS was used to get a target.
system.cpu.branchPredindirectMispredicted           94                       # Number of mispredicted indirect branches.
system.cpu.committedInsts                      609826                       # Number of instructions committed
system.cpu.committedOps                        609826                       # Number of ops (including micro ops) committed
system.cpu.cpi                              12.499206                       # CPI: cycles per instruction
system.cpu.discardedOps                          2281                       # Number of ops (including micro ops) which were discarded before commit
system.cpu.dtb.accesses                             0                       # DTB accesses
system.cpu.dtb.hits                                 0                       # DTB hits
system.cpu.dtb.misses                               0                       # DTB misses
system.cpu.dtb.read_accesses                        0                       # DTB read accesses
system.cpu.dtb.read_hits                            0                       # DTB read hits
system.cpu.dtb.read_misses                          0                       # DTB read misses
system.cpu.dtb.write_accesses                       0                       # DTB write accesses
system.cpu.dtb.write_hits                           0                       # DTB write hits
system.cpu.dtb.write_misses                         0                       # DTB write misses
system.cpu.fetch2.amo_instructions                  0                       # Number of memory atomic instructions successfully decoded
system.cpu.fetch2.fp_instructions                   0                       # Number of floating point instructions successfully decoded
system.cpu.fetch2.int_instructions             401162                       # Number of integer instructions successfully decoded
system.cpu.fetch2.load_instructions            197340                       # Number of memory load instructions successfully decoded
system.cpu.fetch2.store_instructions            28972                       # Number of memory store instructions successfully decoded
system.cpu.fetch2.vec_instructions                  0                       # Number of SIMD instructions successfully decoded
system.cpu.idleCycles                         6451308                       # Total number of cycles that the object has spent stopped
system.cpu.ipc                               0.080005                       # IPC: instructions per cycle
system.cpu.itb.accesses                             0                       # DTB accesses
system.cpu.itb.hits                                 0                       # DTB hits
system.cpu.itb.misses                               0                       # DTB misses
system.cpu.itb.read_accesses                        0                       # DTB read accesses
system.cpu.itb.read_hits                            0                       # DTB read hits
system.cpu.itb.read_misses                          0                       # DTB read misses
system.cpu.itb.write_accesses                       0                       # DTB write accesses
system.cpu.itb.write_hits                           0                       # DTB write hits
system.cpu.itb.write_misses                         0                       # DTB write misses
system.cpu.numCycles                          7622341                       # number of cpu cycles simulated
system.cpu.numFetchSuspends                         0                       # Number of times Execute suspended instruction fetching
system.cpu.numWorkItemsCompleted                    0                       # number of work items this cpu completed
system.cpu.numWorkItemsStarted                      0                       # number of work items this cpu started
system.cpu.op_class_0::No_OpClass                  10      0.00%      0.00% # Class of committed instruction
system.cpu.op_class_0::IntAlu                  349440     57.30%     57.30% # Class of committed instruction
system.cpu.op_class_0::IntMult                  41194      6.76%     64.06% # Class of committed instruction
system.cpu.op_class_0::IntDiv                       0      0.00%     64.06% # Class of committed instruction
system.cpu.op_class_0::FloatAdd                     0      0.00%     64.06% # Class of committed instruction
system.cpu.op_class_0::FloatCmp                     0      0.00%     64.06% # Class of committed instruction
system.cpu.op_class_0::FloatCvt                     0      0.00%     64.06% # Class of committed instruction
system.cpu.op_class_0::FloatMult                    0      0.00%     64.06% # Class of committed instruction
system.cpu.op_class_0::FloatMultAcc                 0      0.00%     64.06% # Class of committed instruction
system.cpu.op_class_0::FloatDiv                     0      0.00%     64.06% # Class of committed instruction
system.cpu.op_class_0::FloatMisc                    0      0.00%     64.06% # Class of committed instruction
system.cpu.op_class_0::FloatSqrt                    0      0.00%     64.06% # Class of committed instruction
system.cpu.op_class_0::SimdAdd                      0      0.00%     64.06% # Class of committed instruction
system.cpu.op_class_0::SimdAddAcc                   0      0.00%     64.06% # Class of committed instruction
system.cpu.op_class_0::SimdAlu                      0      0.00%     64.06% # Class of committed instruction
system.cpu.op_class_0::SimdCmp                      0      0.00%     64.06% # Class of committed instruction
system.cpu.op_class_0::SimdCvt                      0      0.00%     64.06% # Class of committed instruction
system.cpu.op_class_0::SimdMisc                     0      0.00%     64.06% # Class of committed instruction
system.cpu.op_class_0::SimdMult                     0      0.00%     64.06% # Class of committed instruction
system.cpu.op_class_0::SimdMultAcc                  0      0.00%     64.06% # Class of committed instruction
system.cpu.op_class_0::SimdShift                    0      0.00%     64.06% # Class of committed instruction
system.cpu.op_class_0::SimdShiftAcc                 0      0.00%     64.06% # Class of committed instruction
system.cpu.op_class_0::SimdDiv                      0      0.00%     64.06% # Class of committed instruction
system.cpu.op_class_0::SimdSqrt                     0      0.00%     64.06% # Class of committed instruction
system.cpu.op_class_0::SimdFloatAdd                 0      0.00%     64.06% # Class of committed instruction
system.cpu.op_class_0::SimdFloatAlu                 0      0.00%     64.06% # Class of committed instruction
system.cpu.op_class_0::SimdFloatCmp                 0      0.00%     64.06% # Class of committed instruction
system.cpu.op_class_0::SimdFloatCvt                 0      0.00%     64.06% # Class of committed instruction
system.cpu.op_class_0::SimdFloatDiv                 0      0.00%     64.06% # Class of committed instruction
system.cpu.op_class_0::SimdFloatMisc                0      0.00%     64.06% # Class of committed instruction
system.cpu.op_class_0::SimdFloatMult                0      0.00%     64.06% # Class of committed instruction
system.cpu.op_class_0::SimdFloatMultAcc             0      0.00%     64.06% # Class of committed instruction
system.cpu.op_class_0::SimdFloatSqrt                0      0.00%     64.06% # Class of committed instruction
system.cpu.op_class_0::SimdReduceAdd                0      0.00%     64.06% # Class of committed instruction
system.cpu.op_class_0::SimdReduceAlu                0      0.00%     64.06% # Class of committed instruction
system.cpu.op_class_0::SimdReduceCmp                0      0.00%     64.06% # Class of committed instruction
system.cpu.op_class_0::SimdFloatReduceAdd            0      0.00%     64.06% # Class of committed instruction
system.cpu.op_class_0::SimdFloatReduceCmp            0      0.00%     64.06% # Class of committed instruction
system.cpu.op_class_0::SimdAes                      0      0.00%     64.06% # Class of committed instruction
system.cpu.op_class_0::SimdAesMix                   0      0.00%     64.06% # Class of committed instruction
system.cpu.op_class_0::SimdSha1Hash                 0      0.00%     64.06% # Class of committed instruction
system.cpu.op_class_0::SimdSha1Hash2                0      0.00%     64.06% # Class of committed instruction
system.cpu.op_class_0::SimdSha256Hash               0      0.00%     64.06% # Class of committed instruction
system.cpu.op_class_0::SimdSha256Hash2              0      0.00%     64.06% # Class of committed instruction
system.cpu.op_class_0::SimdShaSigma2                0      0.00%     64.06% # Class of committed instruction
system.cpu.op_class_0::SimdShaSigma3                0      0.00%     64.06% # Class of committed instruction
system.cpu.op_class_0::SimdPredAlu                  0      0.00%     64.06% # Class of committed instruction
system.cpu.op_class_0::MemRead                 191274     31.37%     95.42% # Class of committed instruction
system.cpu.op_class_0::MemWrite                 27908      4.58%    100.00% # Class of committed instruction
system.cpu.op_class_0::FloatMemRead                 0      0.00%    100.00% # Class of committed instruction
system.cpu.op_class_0::FloatMemWrite                0      0.00%    100.00% # Class of committed instruction
system.cpu.op_class_0::IprAccess                    0      0.00%    100.00% # Class of committed instruction
system.cpu.op_class_0::InstPrefetch                 0      0.00%    100.00% # Class of committed instruction
system.cpu.op_class_0::total                   609826                       # Class of committed instruction
system.cpu.tickCycles                         1171033                       # Number of cycles that the object actually ticked
system.cpu.workload.numSyscalls                    10                       # Number of system calls
system.membus.snoop_filter.hit_multi_requests            0                       # Number of requests hitting in the snoop filter with multiple (>1) holders of the requested data.
system.membus.snoop_filter.hit_multi_snoops            0                       # Number of snoops hitting in the snoop filter with multiple (>1) holders of the requested data.
system.membus.snoop_filter.hit_single_requests            0                       # Number of requests hitting in the snoop filter with a single holder of the requested data.
system.membus.snoop_filter.hit_single_snoops            0                       # Number of snoops hitting in the snoop filter with a single holder of the requested data.
system.membus.snoop_filter.tot_requests             0                       # Total number of requests made to the snoop filter.
system.membus.snoop_filter.tot_snoops               0                       # Total number of snoops made to the snoop filter.
system.membus.pwrStateResidencyTicks::UNDEFINED   7622341000                       # Cumulative time (in ticks) in various power states
system.membus.trans_dist::ReadReq              242668                       # Transaction distribution
system.membus.trans_dist::ReadResp             242667                       # Transaction distribution
system.membus.trans_dist::WriteReq              28386                       # Transaction distribution
system.membus.trans_dist::WriteResp             28386                       # Transaction distribution
system.membus.pkt_count_system.cpu.fetch1.icache_port::system.mem_ctrl.port       119641                       # Packet count per connected master and slave (bytes)
system.membus.pkt_count_system.cpu.execute.dcache_port::system.mem_ctrl.port       422466                       # Packet count per connected master and slave (bytes)
system.membus.pkt_count::total                 542107                       # Packet count per connected master and slave (bytes)
system.membus.pkt_size_system.cpu.fetch1.icache_port::system.mem_ctrl.port      3828480                       # Cumulative packet size per connected master and slave (bytes)
system.membus.pkt_size_system.cpu.execute.dcache_port::system.mem_ctrl.port       928473                       # Cumulative packet size per connected master and slave (bytes)
system.membus.pkt_size::total                 4756953                       # Cumulative packet size per connected master and slave (bytes)
system.membus.snoops                                0                       # Total snoops (count)
system.membus.snoopTraffic                          0                       # Total snoop traffic (bytes)
system.membus.snoop_fanout::samples            271054                       # Request fanout histogram
system.membus.snoop_fanout::mean                    0                       # Request fanout histogram
system.membus.snoop_fanout::stdev                   0                       # Request fanout histogram
system.membus.snoop_fanout::underflows              0      0.00%      0.00% # Request fanout histogram
system.membus.snoop_fanout::0                  271054    100.00%    100.00% # Request fanout histogram
system.membus.snoop_fanout::1                       0      0.00%    100.00% # Request fanout histogram
system.membus.snoop_fanout::overflows               0      0.00%    100.00% # Request fanout histogram
system.membus.snoop_fanout::min_value               0                       # Request fanout histogram
system.membus.snoop_fanout::max_value               0                       # Request fanout histogram
system.membus.snoop_fanout::total              271054                       # Request fanout histogram
system.membus.reqLayer0.occupancy           299440000                       # Layer occupancy (ticks)
system.membus.reqLayer0.utilization               3.9                       # Layer utilization (%)
system.membus.respLayer1.occupancy          440713500                       # Layer occupancy (ticks)
system.membus.respLayer1.utilization              5.8                       # Layer utilization (%)
system.membus.respLayer0.occupancy          325879250                       # Layer occupancy (ticks)
system.membus.respLayer0.utilization              4.3                       # Layer utilization (%)
system.mem_ctrl.pwrStateResidencyTicks::UNDEFINED   7622341000                       # Cumulative time (in ticks) in various power states
system.mem_ctrl.bytes_read::.cpu.inst         3828480                       # Number of bytes read from this memory
system.mem_ctrl.bytes_read::.cpu.data          819682                       # Number of bytes read from this memory
system.mem_ctrl.bytes_read::total             4648162                       # Number of bytes read from this memory
system.mem_ctrl.bytes_inst_read::.cpu.inst      3828480                       # Number of instructions bytes read from this memory
system.mem_ctrl.bytes_inst_read::total        3828480                       # Number of instructions bytes read from this memory
system.mem_ctrl.bytes_written::.cpu.data       108791                       # Number of bytes written to this memory
system.mem_ctrl.bytes_written::total           108791                       # Number of bytes written to this memory
system.mem_ctrl.num_reads::.cpu.inst            59820                       # Number of read requests responded to by this memory
system.mem_ctrl.num_reads::.cpu.data           182847                       # Number of read requests responded to by this memory
system.mem_ctrl.num_reads::total               242667                       # Number of read requests responded to by this memory
system.mem_ctrl.num_writes::.cpu.data           28386                       # Number of write requests responded to by this memory
system.mem_ctrl.num_writes::total               28386                       # Number of write requests responded to by this memory
system.mem_ctrl.bw_read::.cpu.inst          502270890                       # Total read bandwidth from this memory (bytes/s)
system.mem_ctrl.bw_read::.cpu.data          107536779                       # Total read bandwidth from this memory (bytes/s)
system.mem_ctrl.bw_read::total              609807669                       # Total read bandwidth from this memory (bytes/s)
system.mem_ctrl.bw_inst_read::.cpu.inst     502270890                       # Instruction read bandwidth from this memory (bytes/s)
system.mem_ctrl.bw_inst_read::total         502270890                       # Instruction read bandwidth from this memory (bytes/s)
system.mem_ctrl.bw_write::.cpu.data          14272649                       # Write bandwidth from this memory (bytes/s)
system.mem_ctrl.bw_write::total              14272649                       # Write bandwidth from this memory (bytes/s)
system.mem_ctrl.bw_total::.cpu.inst         502270890                       # Total bandwidth to/from this memory (bytes/s)
system.mem_ctrl.bw_total::.cpu.data         121809428                       # Total bandwidth to/from this memory (bytes/s)
system.mem_ctrl.bw_total::total             624080319                       # Total bandwidth to/from this memory (bytes/s)
system.mem_ctrl.avgPriority_.cpu.inst::samples     59821.00                       # Average QoS priority value for accepted requests
system.mem_ctrl.avgPriority_.cpu.data::samples    158929.00                       # Average QoS priority value for accepted requests
system.mem_ctrl.priorityMinLatency       0.000000018750                       # per QoS priority minimum request to response latency (s)
system.mem_ctrl.priorityMaxLatency       0.014758081250                       # per QoS priority maximum request to response latency (s)
system.mem_ctrl.numReadWriteTurnArounds             7                       # Number of turnarounds from READ to WRITE
system.mem_ctrl.numWriteReadTurnArounds             7                       # Number of turnarounds from WRITE to READ
system.mem_ctrl.numStayReadState               466965                       # Number of times bus staying in READ state
system.mem_ctrl.numStayWriteState                 105                       # Number of times bus staying in WRITE state
system.mem_ctrl.readReqs                       242668                       # Number of read requests accepted
system.mem_ctrl.writeReqs                       28386                       # Number of write requests accepted
system.mem_ctrl.readBursts                     242668                       # Number of DRAM read bursts, including those serviced by the write queue
system.mem_ctrl.writeBursts                     28386                       # Number of DRAM write bursts, including those merged in the write queue
system.mem_ctrl.servicedByWrQ                   24050                       # Number of DRAM read bursts serviced by the write queue
system.mem_ctrl.mergedWrBursts                  28254                       # Number of DRAM write bursts merged with an existing one
system.mem_ctrl.neitherReadNorWriteReqs             0                       # Number of requests that are neither read nor write
system.mem_ctrl.perBankRdBursts::0              59270                       # Per bank write bursts
system.mem_ctrl.perBankRdBursts::1                169                       # Per bank write bursts
system.mem_ctrl.perBankRdBursts::2                100                       # Per bank write bursts
system.mem_ctrl.perBankRdBursts::3                 28                       # Per bank write bursts
system.mem_ctrl.perBankRdBursts::4                167                       # Per bank write bursts
system.mem_ctrl.perBankRdBursts::5                 88                       # Per bank write bursts
system.mem_ctrl.perBankRdBursts::6                 29                       # Per bank write bursts
system.mem_ctrl.perBankRdBursts::7              22441                       # Per bank write bursts
system.mem_ctrl.perBankRdBursts::8             136326                       # Per bank write bursts
system.mem_ctrl.perBankRdBursts::9                  0                       # Per bank write bursts
system.mem_ctrl.perBankRdBursts::10                 0                       # Per bank write bursts
system.mem_ctrl.perBankRdBursts::11                 0                       # Per bank write bursts
system.mem_ctrl.perBankRdBursts::12                 0                       # Per bank write bursts
system.mem_ctrl.perBankRdBursts::13                 0                       # Per bank write bursts
system.mem_ctrl.perBankRdBursts::14                 0                       # Per bank write bursts
system.mem_ctrl.perBankRdBursts::15                 0                       # Per bank write bursts
system.mem_ctrl.perBankWrBursts::0                  0                       # Per bank write bursts
system.mem_ctrl.perBankWrBursts::1                  0                       # Per bank write bursts
system.mem_ctrl.perBankWrBursts::2                  0                       # Per bank write bursts
system.mem_ctrl.perBankWrBursts::3                  0                       # Per bank write bursts
system.mem_ctrl.perBankWrBursts::4                  0                       # Per bank write bursts
system.mem_ctrl.perBankWrBursts::5                  0                       # Per bank write bursts
system.mem_ctrl.perBankWrBursts::6                  0                       # Per bank write bursts
system.mem_ctrl.perBankWrBursts::7                 76                       # Per bank write bursts
system.mem_ctrl.perBankWrBursts::8                 36                       # Per bank write bursts
system.mem_ctrl.perBankWrBursts::9                  0                       # Per bank write bursts
system.mem_ctrl.perBankWrBursts::10                 0                       # Per bank write bursts
system.mem_ctrl.perBankWrBursts::11                 0                       # Per bank write bursts
system.mem_ctrl.perBankWrBursts::12                 0                       # Per bank write bursts
system.mem_ctrl.perBankWrBursts::13                 0                       # Per bank write bursts
system.mem_ctrl.perBankWrBursts::14                 0                       # Per bank write bursts
system.mem_ctrl.perBankWrBursts::15                 0                       # Per bank write bursts
system.mem_ctrl.avgRdQLen                        1.54                       # Average read queue length when enqueuing
system.mem_ctrl.avgWrQLen                       22.18                       # Average write queue length when enqueuing
system.mem_ctrl.totQLat                     959518500                       # Total ticks spent queuing
system.mem_ctrl.totBusLat                  1093090000                       # Total ticks spent in databus transfers
system.mem_ctrl.totMemAccLat               5058606000                       # Total ticks spent from burst creation until serviced by the DRAM
system.mem_ctrl.avgQLat                       4389.02                       # Average queueing delay per DRAM burst
system.mem_ctrl.avgBusLat                     5000.00                       # Average bus latency per DRAM burst
system.mem_ctrl.avgMemAccLat                 23139.02                       # Average memory access latency per DRAM burst
system.mem_ctrl.numRdRetry                          0                       # Number of times read queue was full causing retry
system.mem_ctrl.numWrRetry                          0                       # Number of times write queue was full causing retry
system.mem_ctrl.readRowHits                    203730                       # Number of row buffer hits during reads
system.mem_ctrl.writeRowHits                      106                       # Number of row buffer hits during writes
system.mem_ctrl.readRowHitRate                  93.19                       # Row buffer hit rate for reads
system.mem_ctrl.writeRowHitRate                 80.30                       # Row buffer hit rate for writes
system.mem_ctrl.readPktSize::0                     26                       # Read request sizes (log2)
system.mem_ctrl.readPktSize::1                  18840                       # Read request sizes (log2)
system.mem_ctrl.readPktSize::2                 132468                       # Read request sizes (log2)
system.mem_ctrl.readPktSize::3                  31513                       # Read request sizes (log2)
system.mem_ctrl.readPktSize::4                      0                       # Read request sizes (log2)
system.mem_ctrl.readPktSize::5                      0                       # Read request sizes (log2)
system.mem_ctrl.readPktSize::6                  59821                       # Read request sizes (log2)
system.mem_ctrl.writePktSize::0                    49                       # Write request sizes (log2)
system.mem_ctrl.writePktSize::1                  3467                       # Write request sizes (log2)
system.mem_ctrl.writePktSize::2                 24288                       # Write request sizes (log2)
system.mem_ctrl.writePktSize::3                   582                       # Write request sizes (log2)
system.mem_ctrl.writePktSize::4                     0                       # Write request sizes (log2)
system.mem_ctrl.writePktSize::5                     0                       # Write request sizes (log2)
system.mem_ctrl.writePktSize::6                     0                       # Write request sizes (log2)
system.mem_ctrl.rdQLenPdf::0                   141559                       # What read queue length does an incoming req see
system.mem_ctrl.rdQLenPdf::1                    63560                       # What read queue length does an incoming req see
system.mem_ctrl.rdQLenPdf::2                    13499                       # What read queue length does an incoming req see
system.mem_ctrl.rdQLenPdf::3                        0                       # What read queue length does an incoming req see
system.mem_ctrl.rdQLenPdf::4                        0                       # What read queue length does an incoming req see
system.mem_ctrl.rdQLenPdf::5                        0                       # What read queue length does an incoming req see
system.mem_ctrl.rdQLenPdf::6                        0                       # What read queue length does an incoming req see
system.mem_ctrl.rdQLenPdf::7                        0                       # What read queue length does an incoming req see
system.mem_ctrl.rdQLenPdf::8                        0                       # What read queue length does an incoming req see
system.mem_ctrl.rdQLenPdf::9                        0                       # What read queue length does an incoming req see
system.mem_ctrl.rdQLenPdf::10                       0                       # What read queue length does an incoming req see
system.mem_ctrl.rdQLenPdf::11                       0                       # What read queue length does an incoming req see
system.mem_ctrl.rdQLenPdf::12                       0                       # What read queue length does an incoming req see
system.mem_ctrl.rdQLenPdf::13                       0                       # What read queue length does an incoming req see
system.mem_ctrl.rdQLenPdf::14                       0                       # What read queue length does an incoming req see
system.mem_ctrl.rdQLenPdf::15                       0                       # What read queue length does an incoming req see
system.mem_ctrl.rdQLenPdf::16                       0                       # What read queue length does an incoming req see
system.mem_ctrl.rdQLenPdf::17                       0                       # What read queue length does an incoming req see
system.mem_ctrl.rdQLenPdf::18                       0                       # What read queue length does an incoming req see
system.mem_ctrl.rdQLenPdf::19                       0                       # What read queue length does an incoming req see
system.mem_ctrl.rdQLenPdf::20                       0                       # What read queue length does an incoming req see
system.mem_ctrl.rdQLenPdf::21                       0                       # What read queue length does an incoming req see
system.mem_ctrl.rdQLenPdf::22                       0                       # What read queue length does an incoming req see
system.mem_ctrl.rdQLenPdf::23                       0                       # What read queue length does an incoming req see
system.mem_ctrl.rdQLenPdf::24                       0                       # What read queue length does an incoming req see
system.mem_ctrl.rdQLenPdf::25                       0                       # What read queue length does an incoming req see
system.mem_ctrl.rdQLenPdf::26                       0                       # What read queue length does an incoming req see
system.mem_ctrl.rdQLenPdf::27                       0                       # What read queue length does an incoming req see
system.mem_ctrl.rdQLenPdf::28                       0                       # What read queue length does an incoming req see
system.mem_ctrl.rdQLenPdf::29                       0                       # What read queue length does an incoming req see
system.mem_ctrl.rdQLenPdf::30                       0                       # What read queue length does an incoming req see
system.mem_ctrl.rdQLenPdf::31                       0                       # What read queue length does an incoming req see
system.mem_ctrl.wrQLenPdf::0                        1                       # What write queue length does an incoming req see
system.mem_ctrl.wrQLenPdf::1                        1                       # What write queue length does an incoming req see
system.mem_ctrl.wrQLenPdf::2                        1                       # What write queue length does an incoming req see
system.mem_ctrl.wrQLenPdf::3                        1                       # What write queue length does an incoming req see
system.mem_ctrl.wrQLenPdf::4                        1                       # What write queue length does an incoming req see
system.mem_ctrl.wrQLenPdf::5                        1                       # What write queue length does an incoming req see
system.mem_ctrl.wrQLenPdf::6                        1                       # What write queue length does an incoming req see
system.mem_ctrl.wrQLenPdf::7                        1                       # What write queue length does an incoming req see
system.mem_ctrl.wrQLenPdf::8                        1                       # What write queue length does an incoming req see
system.mem_ctrl.wrQLenPdf::9                        1                       # What write queue length does an incoming req see
system.mem_ctrl.wrQLenPdf::10                       1                       # What write queue length does an incoming req see
system.mem_ctrl.wrQLenPdf::11                       1                       # What write queue length does an incoming req see
system.mem_ctrl.wrQLenPdf::12                       1                       # What write queue length does an incoming req see
system.mem_ctrl.wrQLenPdf::13                       1                       # What write queue length does an incoming req see
system.mem_ctrl.wrQLenPdf::14                       1                       # What write queue length does an incoming req see
system.mem_ctrl.wrQLenPdf::15                       1                       # What write queue length does an incoming req see
system.mem_ctrl.wrQLenPdf::16                       1                       # What write queue length does an incoming req see
system.mem_ctrl.wrQLenPdf::17                       6                       # What write queue length does an incoming req see
system.mem_ctrl.wrQLenPdf::18                       8                       # What write queue length does an incoming req see
system.mem_ctrl.wrQLenPdf::19                       8                       # What write queue length does an incoming req see
system.mem_ctrl.wrQLenPdf::20                       7                       # What write queue length does an incoming req see
system.mem_ctrl.wrQLenPdf::21                       7                       # What write queue length does an incoming req see
system.mem_ctrl.wrQLenPdf::22                       8                       # What write queue length does an incoming req see
system.mem_ctrl.wrQLenPdf::23                       8                       # What write queue length does an incoming req see
system.mem_ctrl.wrQLenPdf::24                       7                       # What write queue length does an incoming req see
system.mem_ctrl.wrQLenPdf::25                       7                       # What write queue length does an incoming req see
system.mem_ctrl.wrQLenPdf::26                       7                       # What write queue length does an incoming req see
system.mem_ctrl.wrQLenPdf::27                       7                       # What write queue length does an incoming req see
system.mem_ctrl.wrQLenPdf::28                       7                       # What write queue length does an incoming req see
system.mem_ctrl.wrQLenPdf::29                       7                       # What write queue length does an incoming req see
system.mem_ctrl.wrQLenPdf::30                       7                       # What write queue length does an incoming req see
system.mem_ctrl.wrQLenPdf::31                       7                       # What write queue length does an incoming req see
system.mem_ctrl.wrQLenPdf::32                       7                       # What write queue length does an incoming req see
system.mem_ctrl.wrQLenPdf::33                       0                       # What write queue length does an incoming req see
system.mem_ctrl.wrQLenPdf::34                       0                       # What write queue length does an incoming req see
system.mem_ctrl.wrQLenPdf::35                       0                       # What write queue length does an incoming req see
system.mem_ctrl.wrQLenPdf::36                       0                       # What write queue length does an incoming req see
system.mem_ctrl.wrQLenPdf::37                       0                       # What write queue length does an incoming req see
system.mem_ctrl.wrQLenPdf::38                       0                       # What write queue length does an incoming req see
system.mem_ctrl.wrQLenPdf::39                       0                       # What write queue length does an incoming req see
system.mem_ctrl.wrQLenPdf::40                       0                       # What write queue length does an incoming req see
system.mem_ctrl.wrQLenPdf::41                       0                       # What write queue length does an incoming req see
system.mem_ctrl.wrQLenPdf::42                       0                       # What write queue length does an incoming req see
system.mem_ctrl.wrQLenPdf::43                       0                       # What write queue length does an incoming req see
system.mem_ctrl.wrQLenPdf::44                       0                       # What write queue length does an incoming req see
system.mem_ctrl.wrQLenPdf::45                       0                       # What write queue length does an incoming req see
system.mem_ctrl.wrQLenPdf::46                       0                       # What write queue length does an incoming req see
system.mem_ctrl.wrQLenPdf::47                       0                       # What write queue length does an incoming req see
system.mem_ctrl.wrQLenPdf::48                       0                       # What write queue length does an incoming req see
system.mem_ctrl.wrQLenPdf::49                       0                       # What write queue length does an incoming req see
system.mem_ctrl.wrQLenPdf::50                       0                       # What write queue length does an incoming req see
system.mem_ctrl.wrQLenPdf::51                       0                       # What write queue length does an incoming req see
system.mem_ctrl.wrQLenPdf::52                       0                       # What write queue length does an incoming req see
system.mem_ctrl.wrQLenPdf::53                       0                       # What write queue length does an incoming req see
system.mem_ctrl.wrQLenPdf::54                       0                       # What write queue length does an incoming req see
system.mem_ctrl.wrQLenPdf::55                       0                       # What write queue length does an incoming req see
system.mem_ctrl.wrQLenPdf::56                       0                       # What write queue length does an incoming req see
system.mem_ctrl.wrQLenPdf::57                       0                       # What write queue length does an incoming req see
system.mem_ctrl.wrQLenPdf::58                       0                       # What write queue length does an incoming req see
system.mem_ctrl.wrQLenPdf::59                       0                       # What write queue length does an incoming req see
system.mem_ctrl.wrQLenPdf::60                       0                       # What write queue length does an incoming req see
system.mem_ctrl.wrQLenPdf::61                       0                       # What write queue length does an incoming req see
system.mem_ctrl.wrQLenPdf::62                       0                       # What write queue length does an incoming req see
system.mem_ctrl.wrQLenPdf::63                       0                       # What write queue length does an incoming req see
system.mem_ctrl.bytesPerActivate::samples        14886                       # Bytes accessed per row activation
system.mem_ctrl.bytesPerActivate::mean     940.154239                       # Bytes accessed per row activation
system.mem_ctrl.bytesPerActivate::gmean    896.034553                       # Bytes accessed per row activation
system.mem_ctrl.bytesPerActivate::stdev    202.075955                       # Bytes accessed per row activation
system.mem_ctrl.bytesPerActivate::0-127           128      0.86%      0.86% # Bytes accessed per row activation
system.mem_ctrl.bytesPerActivate::128-255          136      0.91%      1.77% # Bytes accessed per row activation
system.mem_ctrl.bytesPerActivate::256-383          186      1.25%      3.02% # Bytes accessed per row activation
system.mem_ctrl.bytesPerActivate::384-511          424      2.85%      5.87% # Bytes accessed per row activation
system.mem_ctrl.bytesPerActivate::512-639          603      4.05%      9.92% # Bytes accessed per row activation
system.mem_ctrl.bytesPerActivate::640-767          598      4.02%     13.94% # Bytes accessed per row activation
system.mem_ctrl.bytesPerActivate::768-895          386      2.59%     16.53% # Bytes accessed per row activation
system.mem_ctrl.bytesPerActivate::896-1023          277      1.86%     18.39% # Bytes accessed per row activation
system.mem_ctrl.bytesPerActivate::1024-1151        12148     81.61%    100.00% # Bytes accessed per row activation
system.mem_ctrl.bytesPerActivate::total         14886                       # Bytes accessed per row activation
system.mem_ctrl.rdPerTurnAround::samples            7                       # Reads before turning the bus around for writes
system.mem_ctrl.rdPerTurnAround::mean    31194.285714                       # Reads before turning the bus around for writes
system.mem_ctrl.rdPerTurnAround::gmean    1551.291994                       # Reads before turning the bus around for writes
system.mem_ctrl.rdPerTurnAround::stdev   76713.502329                       # Reads before turning the bus around for writes
system.mem_ctrl.rdPerTurnAround::0-8191             6     85.71%     85.71% # Reads before turning the bus around for writes
system.mem_ctrl.rdPerTurnAround::204800-212991            1     14.29%    100.00% # Reads before turning the bus around for writes
system.mem_ctrl.rdPerTurnAround::total              7                       # Reads before turning the bus around for writes
system.mem_ctrl.wrPerTurnAround::samples            7                       # Writes before turning the bus around for reads
system.mem_ctrl.wrPerTurnAround::mean              16                       # Writes before turning the bus around for reads
system.mem_ctrl.wrPerTurnAround::gmean      16.000000                       # Writes before turning the bus around for reads
system.mem_ctrl.wrPerTurnAround::16                 7    100.00%    100.00% # Writes before turning the bus around for reads
system.mem_ctrl.wrPerTurnAround::total              7                       # Writes before turning the bus around for reads
system.mem_ctrl.bytesReadDRAM                13991552                       # Total number of bytes read from DRAM
system.mem_ctrl.bytesReadWrQ                  1539200                       # Total number of bytes read from write queue
system.mem_ctrl.bytesWritten                     7168                       # Total number of bytes written to DRAM
system.mem_ctrl.bytesReadSys                  4648226                       # Total read bytes from the system interface side
system.mem_ctrl.bytesWrittenSys                108791                       # Total written bytes from the system interface side
system.mem_ctrl.avgRdBW                       1835.60                       # Average DRAM read bandwidth in MiByte/s
system.mem_ctrl.avgWrBW                          0.94                       # Average achieved write bandwidth in MiByte/s
system.mem_ctrl.avgRdBWSys                     609.82                       # Average system read bandwidth in MiByte/s
system.mem_ctrl.avgWrBWSys                      14.27                       # Average system write bandwidth in MiByte/s
system.mem_ctrl.peakBW                       12800.00                       # Theoretical peak bandwidth in MiByte/s
system.mem_ctrl.busUtil                         14.35                       # Data bus utilization in percentage
system.mem_ctrl.busUtilRead                     14.34                       # Data bus utilization in percentage for reads
system.mem_ctrl.busUtilWrite                     0.01                       # Data bus utilization in percentage for writes
system.mem_ctrl.totGap                     7622332000                       # Total gap between requests
system.mem_ctrl.avgGap                       28121.08                       # Average gap between requests
system.mem_ctrl.masterReadBytes::.cpu.inst      3828544                       # Per-master bytes read from memory
system.mem_ctrl.masterReadBytes::.cpu.data       724644                       # Per-master bytes read from memory
system.mem_ctrl.masterWriteBytes::.cpu.data          669                       # Per-master bytes write to memory
system.mem_ctrl.masterReadRate::.cpu.inst 502279286.639104664326                       # Per-master bytes read from memory rate (Bytes/sec)
system.mem_ctrl.masterReadRate::.cpu.data 95068431.076489493251                       # Per-master bytes read from memory rate (Bytes/sec)
system.mem_ctrl.masterWriteRate::.cpu.data 87768.311598759479                       # Per-master bytes write to memory rate (Bytes/sec)
system.mem_ctrl.masterReadAccesses::.cpu.inst        59821                       # Per-master read serviced memory accesses
system.mem_ctrl.masterReadAccesses::.cpu.data       182847                       # Per-master read serviced memory accesses
system.mem_ctrl.masterWriteAccesses::.cpu.data        28386                       # Per-master write serviced memory accesses
system.mem_ctrl.masterReadTotalLat::.cpu.inst   1465201500                       # Per-master read total memory access latency
system.mem_ctrl.masterReadTotalLat::.cpu.data   3593404500                       # Per-master read total memory access latency
system.mem_ctrl.masterWriteTotalLat::.cpu.data 118375769250                       # Per-master write total memory access latency
system.mem_ctrl.masterReadAvgLat::.cpu.inst     24493.10                       # Per-master read average memory access latency
system.mem_ctrl.masterReadAvgLat::.cpu.data     19652.52                       # Per-master read average memory access latency
system.mem_ctrl.masterWriteAvgLat::.cpu.data   4170216.63                       # Per-master write average memory access latency
system.mem_ctrl.pageHitRate                     93.18                       # Row buffer hit rate, read and write combined
system.mem_ctrl.rank1.actEnergy              63695940                       # Energy for activate commands per rank (pJ)
system.mem_ctrl.rank1.preEnergy              33851400                       # Energy for precharge commands per rank (pJ)
system.mem_ctrl.rank1.readEnergy            973367640                       # Energy for read commands per rank (pJ)
system.mem_ctrl.rank1.writeEnergy              187920                       # Energy for write commands per rank (pJ)
system.mem_ctrl.rank1.refreshEnergy      601117920.000000                       # Energy for refresh commands per rank (pJ)
system.mem_ctrl.rank1.actBackEnergy        3276484260                       # Energy for active background per rank (pJ)
system.mem_ctrl.rank1.preBackEnergy         167834400                       # Energy for precharge background per rank (pJ)
system.mem_ctrl.rank1.actPowerDownEnergy            0                       # Energy for active power-down per rank (pJ)
system.mem_ctrl.rank1.prePowerDownEnergy            0                       # Energy for precharge power-down per rank (pJ)
system.mem_ctrl.rank1.selfRefreshEnergy             0                       # Energy for self refresh per rank (pJ)
system.mem_ctrl.rank1.totalEnergy          5116539480                       # Total energy per rank (pJ)
system.mem_ctrl.rank1.averagePower         671.255652                       # Core power per rank (mW)
system.mem_ctrl.rank1.totalIdleTime                 0                       # Total Idle time Per DRAM Rank
system.mem_ctrl.rank1.memoryStateTime::IDLE    300878750                       # Time in different power states
system.mem_ctrl.rank1.memoryStateTime::REF    254280000                       # Time in different power states
system.mem_ctrl.rank1.memoryStateTime::SREF            0                       # Time in different power states
system.mem_ctrl.rank1.memoryStateTime::PRE_PDN            0                       # Time in different power states
system.mem_ctrl.rank1.memoryStateTime::ACT   7067182250                       # Time in different power states
system.mem_ctrl.rank1.memoryStateTime::ACT_PDN            0                       # Time in different power states
system.mem_ctrl.rank0.actEnergy              42647220                       # Energy for activate commands per rank (pJ)
system.mem_ctrl.rank0.preEnergy              22640970                       # Energy for precharge commands per rank (pJ)
system.mem_ctrl.rank0.readEnergy            587564880                       # Energy for read commands per rank (pJ)
system.mem_ctrl.rank0.writeEnergy              396720                       # Energy for write commands per rank (pJ)
system.mem_ctrl.rank0.refreshEnergy      601117920.000000                       # Energy for refresh commands per rank (pJ)
system.mem_ctrl.rank0.actBackEnergy        3435680130                       # Energy for active background per rank (pJ)
system.mem_ctrl.rank0.preBackEnergy          33774720                       # Energy for precharge background per rank (pJ)
system.mem_ctrl.rank0.actPowerDownEnergy            0                       # Energy for active power-down per rank (pJ)
system.mem_ctrl.rank0.prePowerDownEnergy            0                       # Energy for precharge power-down per rank (pJ)
system.mem_ctrl.rank0.selfRefreshEnergy             0                       # Energy for self refresh per rank (pJ)
system.mem_ctrl.rank0.totalEnergy          4723822560                       # Total energy per rank (pJ)
system.mem_ctrl.rank0.averagePower         619.733827                       # Core power per rank (mW)
system.mem_ctrl.rank0.totalIdleTime                 0                       # Total Idle time Per DRAM Rank
system.mem_ctrl.rank0.memoryStateTime::IDLE     56393500                       # Time in different power states
system.mem_ctrl.rank0.memoryStateTime::REF    254280000                       # Time in different power states
system.mem_ctrl.rank0.memoryStateTime::SREF            0                       # Time in different power states
system.mem_ctrl.rank0.memoryStateTime::PRE_PDN            0                       # Time in different power states
system.mem_ctrl.rank0.memoryStateTime::ACT   7311667500                       # Time in different power states
system.mem_ctrl.rank0.memoryStateTime::ACT_PDN            0                       # Time in different power states
system.clk_domain.clock                          1000                       # Clock period in ticks
system.clk_domain.voltage_domain.voltage            1                       # Voltage in Volts
system.cpu.pwrStateResidencyTicks::ON      7622341000                       # Cumulative time (in ticks) in various power states

---------- End Simulation Statistics   ----------
