
---------- Begin Simulation Statistics ----------
final_tick                                35308762000                       # Number of ticks from beginning of simulation (restored from checkpoints and never reset)
host_inst_rate                                 115564                       # Simulator instruction rate (inst/s)
host_mem_usage                                8498520                       # Number of bytes of host memory used
host_op_rate                                   115560                       # Simulator op (including micro ops) rate (op/s)
host_seconds                                    16.25                       # Real time elapsed on the host
host_tick_rate                             2172835981                       # Simulator tick rate (ticks/s)
sim_freq                                 1000000000000                       # Frequency of simulated ticks
sim_insts                                     1877822                       # Number of instructions simulated
sim_ops                                       1877822                       # Number of ops (including micro ops) simulated
sim_seconds                                  0.035309                       # Number of seconds simulated
sim_ticks                                 35308762000                       # Number of ticks simulated
system.cpu.branchPred.BTBCorrect                    0                       # Number of correct BTB predictions (this stat may not work properly.
system.cpu.branchPred.BTBHitPct             73.141827                       # BTB Hit Percentage
system.cpu.branchPred.BTBHits                  202371                       # Number of BTB hits
system.cpu.branchPred.BTBLookups               276683                       # Number of BTB lookups
system.cpu.branchPred.RASInCorrect                  0                       # Number of incorrect RAS predictions.
system.cpu.branchPred.condIncorrect             10222                       # Number of conditional branches incorrect
system.cpu.branchPred.condPredicted            305378                       # Number of conditional branches predicted
system.cpu.branchPred.indirectHits              54029                       # Number of indirect target hits.
system.cpu.branchPred.indirectLookups           56427                       # Number of indirect predictor lookups.
system.cpu.branchPred.indirectMisses             2398                       # Number of indirect misses.
system.cpu.branchPred.lookups                  447603                       # Number of BP lookups
system.cpu.branchPred.usedRAS                       0                       # Number of times the RAS was used to get a target.
system.cpu.branchPredindirectMispredicted         7505                       # Number of mispredicted indirect branches.
system.cpu.committedInsts                     1877822                       # Number of instructions committed
system.cpu.committedOps                       1877822                       # Number of ops (including micro ops) committed
system.cpu.cpi                              18.803040                       # CPI: cycles per instruction
system.cpu.discardedOps                         23421                       # Number of ops (including micro ops) which were discarded before commit
system.cpu.dtb.accesses                             0                       # DTB accesses
system.cpu.dtb.hits                                 0                       # DTB hits
system.cpu.dtb.misses                               0                       # DTB misses
system.cpu.dtb.read_accesses                        0                       # DTB read accesses
system.cpu.dtb.read_hits                            0                       # DTB read hits
system.cpu.dtb.read_misses                          0                       # DTB read misses
system.cpu.dtb.write_accesses                       0                       # DTB write accesses
system.cpu.dtb.write_hits                           0                       # DTB write hits
system.cpu.dtb.write_misses                         0                       # DTB write misses
system.cpu.fetch2.amo_instructions                  0                       # Number of memory atomic instructions successfully decoded
system.cpu.fetch2.fp_instructions                   0                       # Number of floating point instructions successfully decoded
system.cpu.fetch2.int_instructions            1352501                       # Number of integer instructions successfully decoded
system.cpu.fetch2.load_instructions            329278                       # Number of memory load instructions successfully decoded
system.cpu.fetch2.store_instructions           265670                       # Number of memory store instructions successfully decoded
system.cpu.fetch2.vec_instructions                  0                       # Number of SIMD instructions successfully decoded
system.cpu.idleCycles                        29907489                       # Total number of cycles that the object has spent stopped
system.cpu.ipc                               0.053183                       # IPC: instructions per cycle
system.cpu.itb.accesses                             0                       # DTB accesses
system.cpu.itb.hits                                 0                       # DTB hits
system.cpu.itb.misses                               0                       # DTB misses
system.cpu.itb.read_accesses                        0                       # DTB read accesses
system.cpu.itb.read_hits                            0                       # DTB read hits
system.cpu.itb.read_misses                          0                       # DTB read misses
system.cpu.itb.write_accesses                       0                       # DTB write accesses
system.cpu.itb.write_hits                           0                       # DTB write hits
system.cpu.itb.write_misses                         0                       # DTB write misses
system.cpu.numCycles                         35308762                       # number of cpu cycles simulated
system.cpu.numFetchSuspends                         0                       # Number of times Execute suspended instruction fetching
system.cpu.numWorkItemsCompleted                    0                       # number of work items this cpu completed
system.cpu.numWorkItemsStarted                      0                       # number of work items this cpu started
system.cpu.op_class_0::No_OpClass                  75      0.00%      0.00% # Class of committed instruction
system.cpu.op_class_0::IntAlu                 1289325     68.66%     68.66% # Class of committed instruction
system.cpu.op_class_0::IntMult                  14613      0.78%     69.44% # Class of committed instruction
system.cpu.op_class_0::IntDiv                   12494      0.67%     70.11% # Class of committed instruction
system.cpu.op_class_0::FloatAdd                     0      0.00%     70.11% # Class of committed instruction
system.cpu.op_class_0::FloatCmp                     0      0.00%     70.11% # Class of committed instruction
system.cpu.op_class_0::FloatCvt                     0      0.00%     70.11% # Class of committed instruction
system.cpu.op_class_0::FloatMult                    0      0.00%     70.11% # Class of committed instruction
system.cpu.op_class_0::FloatMultAcc                 0      0.00%     70.11% # Class of committed instruction
system.cpu.op_class_0::FloatDiv                     0      0.00%     70.11% # Class of committed instruction
system.cpu.op_class_0::FloatMisc                    0      0.00%     70.11% # Class of committed instruction
system.cpu.op_class_0::FloatSqrt                    0      0.00%     70.11% # Class of committed instruction
system.cpu.op_class_0::SimdAdd                      0      0.00%     70.11% # Class of committed instruction
system.cpu.op_class_0::SimdAddAcc                   0      0.00%     70.11% # Class of committed instruction
system.cpu.op_class_0::SimdAlu                      0      0.00%     70.11% # Class of committed instruction
system.cpu.op_class_0::SimdCmp                      0      0.00%     70.11% # Class of committed instruction
system.cpu.op_class_0::SimdCvt                      0      0.00%     70.11% # Class of committed instruction
system.cpu.op_class_0::SimdMisc                     0      0.00%     70.11% # Class of committed instruction
system.cpu.op_class_0::SimdMult                     0      0.00%     70.11% # Class of committed instruction
system.cpu.op_class_0::SimdMultAcc                  0      0.00%     70.11% # Class of committed instruction
system.cpu.op_class_0::SimdShift                    0      0.00%     70.11% # Class of committed instruction
system.cpu.op_class_0::SimdShiftAcc                 0      0.00%     70.11% # Class of committed instruction
system.cpu.op_class_0::SimdDiv                      0      0.00%     70.11% # Class of committed instruction
system.cpu.op_class_0::SimdSqrt                     0      0.00%     70.11% # Class of committed instruction
system.cpu.op_class_0::SimdFloatAdd                 0      0.00%     70.11% # Class of committed instruction
system.cpu.op_class_0::SimdFloatAlu                 0      0.00%     70.11% # Class of committed instruction
system.cpu.op_class_0::SimdFloatCmp                 0      0.00%     70.11% # Class of committed instruction
system.cpu.op_class_0::SimdFloatCvt                 0      0.00%     70.11% # Class of committed instruction
system.cpu.op_class_0::SimdFloatDiv                 0      0.00%     70.11% # Class of committed instruction
system.cpu.op_class_0::SimdFloatMisc                0      0.00%     70.11% # Class of committed instruction
system.cpu.op_class_0::SimdFloatMult                0      0.00%     70.11% # Class of committed instruction
system.cpu.op_class_0::SimdFloatMultAcc             0      0.00%     70.11% # Class of committed instruction
system.cpu.op_class_0::SimdFloatSqrt                0      0.00%     70.11% # Class of committed instruction
system.cpu.op_class_0::SimdReduceAdd                0      0.00%     70.11% # Class of committed instruction
system.cpu.op_class_0::SimdReduceAlu                0      0.00%     70.11% # Class of committed instruction
system.cpu.op_class_0::SimdReduceCmp                0      0.00%     70.11% # Class of committed instruction
system.cpu.op_class_0::SimdFloatReduceAdd            0      0.00%     70.11% # Class of committed instruction
system.cpu.op_class_0::SimdFloatReduceCmp            0      0.00%     70.11% # Class of committed instruction
system.cpu.op_class_0::SimdAes                      0      0.00%     70.11% # Class of committed instruction
system.cpu.op_class_0::SimdAesMix                   0      0.00%     70.11% # Class of committed instruction
system.cpu.op_class_0::SimdSha1Hash                 0      0.00%     70.11% # Class of committed instruction
system.cpu.op_class_0::SimdSha1Hash2                0      0.00%     70.11% # Class of committed instruction
system.cpu.op_class_0::SimdSha256Hash               0      0.00%     70.11% # Class of committed instruction
system.cpu.op_class_0::SimdSha256Hash2              0      0.00%     70.11% # Class of committed instruction
system.cpu.op_class_0::SimdShaSigma2                0      0.00%     70.11% # Class of committed instruction
system.cpu.op_class_0::SimdShaSigma3                0      0.00%     70.11% # Class of committed instruction
system.cpu.op_class_0::SimdPredAlu                  0      0.00%     70.11% # Class of committed instruction
system.cpu.op_class_0::MemRead                 308996     16.46%     86.56% # Class of committed instruction
system.cpu.op_class_0::MemWrite                252319     13.44%    100.00% # Class of committed instruction
system.cpu.op_class_0::FloatMemRead                 0      0.00%    100.00% # Class of committed instruction
system.cpu.op_class_0::FloatMemWrite                0      0.00%    100.00% # Class of committed instruction
system.cpu.op_class_0::IprAccess                    0      0.00%    100.00% # Class of committed instruction
system.cpu.op_class_0::InstPrefetch                 0      0.00%    100.00% # Class of committed instruction
system.cpu.op_class_0::total                  1877822                       # Class of committed instruction
system.cpu.tickCycles                         5401273                       # Number of cycles that the object actually ticked
system.cpu.workload.numSyscalls                    75                       # Number of system calls
system.membus.snoop_filter.hit_multi_requests            0                       # Number of requests hitting in the snoop filter with multiple (>1) holders of the requested data.
system.membus.snoop_filter.hit_multi_snoops            0                       # Number of snoops hitting in the snoop filter with multiple (>1) holders of the requested data.
system.membus.snoop_filter.hit_single_requests            0                       # Number of requests hitting in the snoop filter with a single holder of the requested data.
system.membus.snoop_filter.hit_single_snoops            0                       # Number of snoops hitting in the snoop filter with a single holder of the requested data.
system.membus.snoop_filter.tot_requests             0                       # Total number of requests made to the snoop filter.
system.membus.snoop_filter.tot_snoops               0                       # Total number of snoops made to the snoop filter.
system.membus.pwrStateResidencyTicks::UNDEFINED  35308762000                       # Cumulative time (in ticks) in various power states
system.membus.trans_dist::ReadReq              916148                       # Transaction distribution
system.membus.trans_dist::ReadResp             916147                       # Transaction distribution
system.membus.trans_dist::WriteReq             252319                       # Transaction distribution
system.membus.trans_dist::WriteResp            252319                       # Transaction distribution
system.membus.pkt_count_system.cpu.fetch1.icache_port::system.mem_ctrl.port      1220485                       # Packet count per connected master and slave (bytes)
system.membus.pkt_count_system.cpu.execute.dcache_port::system.mem_ctrl.port      1116448                       # Packet count per connected master and slave (bytes)
system.membus.pkt_count::total                2336933                       # Packet count per connected master and slave (bytes)
system.membus.pkt_size_system.cpu.fetch1.icache_port::system.mem_ctrl.port     39055488                       # Cumulative packet size per connected master and slave (bytes)
system.membus.pkt_size_system.cpu.execute.dcache_port::system.mem_ctrl.port      3490523                       # Cumulative packet size per connected master and slave (bytes)
system.membus.pkt_size::total                42546011                       # Cumulative packet size per connected master and slave (bytes)
system.membus.snoops                                0                       # Total snoops (count)
system.membus.snoopTraffic                          0                       # Total snoop traffic (bytes)
system.membus.snoop_fanout::samples           1168467                       # Request fanout histogram
system.membus.snoop_fanout::mean                    0                       # Request fanout histogram
system.membus.snoop_fanout::stdev                   0                       # Request fanout histogram
system.membus.snoop_fanout::underflows              0      0.00%      0.00% # Request fanout histogram
system.membus.snoop_fanout::0                 1168467    100.00%    100.00% # Request fanout histogram
system.membus.snoop_fanout::1                       0      0.00%    100.00% # Request fanout histogram
system.membus.snoop_fanout::overflows               0      0.00%    100.00% # Request fanout histogram
system.membus.snoop_fanout::min_value               0                       # Request fanout histogram
system.membus.snoop_fanout::max_value               0                       # Request fanout histogram
system.membus.snoop_fanout::total             1168467                       # Request fanout histogram
system.membus.reqLayer0.occupancy          1420786000                       # Layer occupancy (ticks)
system.membus.reqLayer0.utilization               4.0                       # Layer utilization (%)
system.membus.respLayer1.occupancy          967714749                       # Layer occupancy (ticks)
system.membus.respLayer1.utilization              2.7                       # Layer utilization (%)
system.membus.respLayer0.occupancy         3227628500                       # Layer occupancy (ticks)
system.membus.respLayer0.utilization              9.1                       # Layer utilization (%)
system.mem_ctrl.pwrStateResidencyTicks::UNDEFINED  35308762000                       # Cumulative time (in ticks) in various power states
system.mem_ctrl.bytes_read::.cpu.inst        39055488                       # Number of bytes read from this memory
system.mem_ctrl.bytes_read::.cpu.data         1881225                       # Number of bytes read from this memory
system.mem_ctrl.bytes_read::total            40936713                       # Number of bytes read from this memory
system.mem_ctrl.bytes_inst_read::.cpu.inst     39055488                       # Number of instructions bytes read from this memory
system.mem_ctrl.bytes_inst_read::total       39055488                       # Number of instructions bytes read from this memory
system.mem_ctrl.bytes_written::.cpu.data      1609298                       # Number of bytes written to this memory
system.mem_ctrl.bytes_written::total          1609298                       # Number of bytes written to this memory
system.mem_ctrl.num_reads::.cpu.inst           610242                       # Number of read requests responded to by this memory
system.mem_ctrl.num_reads::.cpu.data           305905                       # Number of read requests responded to by this memory
system.mem_ctrl.num_reads::total               916147                       # Number of read requests responded to by this memory
system.mem_ctrl.num_writes::.cpu.data          252319                       # Number of write requests responded to by this memory
system.mem_ctrl.num_writes::total              252319                       # Number of write requests responded to by this memory
system.mem_ctrl.bw_read::.cpu.inst         1106113208                       # Total read bandwidth from this memory (bytes/s)
system.mem_ctrl.bw_read::.cpu.data           53279268                       # Total read bandwidth from this memory (bytes/s)
system.mem_ctrl.bw_read::total             1159392476                       # Total read bandwidth from this memory (bytes/s)
system.mem_ctrl.bw_inst_read::.cpu.inst    1106113208                       # Instruction read bandwidth from this memory (bytes/s)
system.mem_ctrl.bw_inst_read::total        1106113208                       # Instruction read bandwidth from this memory (bytes/s)
system.mem_ctrl.bw_write::.cpu.data          45577865                       # Write bandwidth from this memory (bytes/s)
system.mem_ctrl.bw_write::total              45577865                       # Write bandwidth from this memory (bytes/s)
system.mem_ctrl.bw_total::.cpu.inst        1106113208                       # Total bandwidth to/from this memory (bytes/s)
system.mem_ctrl.bw_total::.cpu.data          98857134                       # Total bandwidth to/from this memory (bytes/s)
system.mem_ctrl.bw_total::total            1204970341                       # Total bandwidth to/from this memory (bytes/s)
system.mem_ctrl.avgPriority_.cpu.inst::samples    610243.00                       # Average QoS priority value for accepted requests
system.mem_ctrl.avgPriority_.cpu.data::samples    268524.00                       # Average QoS priority value for accepted requests
system.mem_ctrl.priorityMinLatency       0.000000018750                       # per QoS priority minimum request to response latency (s)
system.mem_ctrl.priorityMaxLatency       0.005335076500                       # per QoS priority maximum request to response latency (s)
system.mem_ctrl.numReadWriteTurnArounds           503                       # Number of turnarounds from READ to WRITE
system.mem_ctrl.numWriteReadTurnArounds           503                       # Number of turnarounds from WRITE to READ
system.mem_ctrl.numStayReadState              1999717                       # Number of times bus staying in READ state
system.mem_ctrl.numStayWriteState                7566                       # Number of times bus staying in WRITE state
system.mem_ctrl.readReqs                       916148                       # Number of read requests accepted
system.mem_ctrl.writeReqs                      252319                       # Number of write requests accepted
system.mem_ctrl.readBursts                     916148                       # Number of DRAM read bursts, including those serviced by the write queue
system.mem_ctrl.writeBursts                    252319                       # Number of DRAM write bursts, including those merged in the write queue
system.mem_ctrl.servicedByWrQ                   45458                       # Number of DRAM read bursts serviced by the write queue
system.mem_ctrl.mergedWrBursts                 244242                       # Number of DRAM write bursts merged with an existing one
system.mem_ctrl.neitherReadNorWriteReqs             0                       # Number of requests that are neither read nor write
system.mem_ctrl.perBankRdBursts::0             218904                       # Per bank write bursts
system.mem_ctrl.perBankRdBursts::1             179840                       # Per bank write bursts
system.mem_ctrl.perBankRdBursts::2             108285                       # Per bank write bursts
system.mem_ctrl.perBankRdBursts::3               1716                       # Per bank write bursts
system.mem_ctrl.perBankRdBursts::4               3598                       # Per bank write bursts
system.mem_ctrl.perBankRdBursts::5              45294                       # Per bank write bursts
system.mem_ctrl.perBankRdBursts::6              35257                       # Per bank write bursts
system.mem_ctrl.perBankRdBursts::7             155360                       # Per bank write bursts
system.mem_ctrl.perBankRdBursts::8               9412                       # Per bank write bursts
system.mem_ctrl.perBankRdBursts::9               9172                       # Per bank write bursts
system.mem_ctrl.perBankRdBursts::10              7407                       # Per bank write bursts
system.mem_ctrl.perBankRdBursts::11              8705                       # Per bank write bursts
system.mem_ctrl.perBankRdBursts::12              2854                       # Per bank write bursts
system.mem_ctrl.perBankRdBursts::13              6641                       # Per bank write bursts
system.mem_ctrl.perBankRdBursts::14              3740                       # Per bank write bursts
system.mem_ctrl.perBankRdBursts::15             74505                       # Per bank write bursts
system.mem_ctrl.perBankWrBursts::0                350                       # Per bank write bursts
system.mem_ctrl.perBankWrBursts::1                264                       # Per bank write bursts
system.mem_ctrl.perBankWrBursts::2                262                       # Per bank write bursts
system.mem_ctrl.perBankWrBursts::3                258                       # Per bank write bursts
system.mem_ctrl.perBankWrBursts::4                283                       # Per bank write bursts
system.mem_ctrl.perBankWrBursts::5                784                       # Per bank write bursts
system.mem_ctrl.perBankWrBursts::6                622                       # Per bank write bursts
system.mem_ctrl.perBankWrBursts::7               1770                       # Per bank write bursts
system.mem_ctrl.perBankWrBursts::8                612                       # Per bank write bursts
system.mem_ctrl.perBankWrBursts::9                388                       # Per bank write bursts
system.mem_ctrl.perBankWrBursts::10               385                       # Per bank write bursts
system.mem_ctrl.perBankWrBursts::11               385                       # Per bank write bursts
system.mem_ctrl.perBankWrBursts::12               386                       # Per bank write bursts
system.mem_ctrl.perBankWrBursts::13               526                       # Per bank write bursts
system.mem_ctrl.perBankWrBursts::14               390                       # Per bank write bursts
system.mem_ctrl.perBankWrBursts::15               387                       # Per bank write bursts
system.mem_ctrl.avgRdQLen                        1.31                       # Average read queue length when enqueuing
system.mem_ctrl.avgWrQLen                       26.52                       # Average write queue length when enqueuing
system.mem_ctrl.totQLat                    4039593250                       # Total ticks spent queuing
system.mem_ctrl.totBusLat                  4353450000                       # Total ticks spent in databus transfers
system.mem_ctrl.totMemAccLat              20365030750                       # Total ticks spent from burst creation until serviced by the DRAM
system.mem_ctrl.avgQLat                       4639.53                       # Average queueing delay per DRAM burst
system.mem_ctrl.avgBusLat                     5000.00                       # Average bus latency per DRAM burst
system.mem_ctrl.avgMemAccLat                 23389.53                       # Average memory access latency per DRAM burst
system.mem_ctrl.numRdRetry                          0                       # Number of times read queue was full causing retry
system.mem_ctrl.numWrRetry                          0                       # Number of times write queue was full causing retry
system.mem_ctrl.readRowHits                    774572                       # Number of row buffer hits during reads
system.mem_ctrl.writeRowHits                     7473                       # Number of row buffer hits during writes
system.mem_ctrl.readRowHitRate                  88.96                       # Row buffer hit rate for reads
system.mem_ctrl.writeRowHitRate                 92.52                       # Row buffer hit rate for writes
system.mem_ctrl.readPktSize::0                  64003                       # Read request sizes (log2)
system.mem_ctrl.readPktSize::1                  10411                       # Read request sizes (log2)
system.mem_ctrl.readPktSize::2                  13882                       # Read request sizes (log2)
system.mem_ctrl.readPktSize::3                 217609                       # Read request sizes (log2)
system.mem_ctrl.readPktSize::4                      0                       # Read request sizes (log2)
system.mem_ctrl.readPktSize::5                      0                       # Read request sizes (log2)
system.mem_ctrl.readPktSize::6                 610243                       # Read request sizes (log2)
system.mem_ctrl.writePktSize::0                 43204                       # Write request sizes (log2)
system.mem_ctrl.writePktSize::1                 11167                       # Write request sizes (log2)
system.mem_ctrl.writePktSize::2                  9956                       # Write request sizes (log2)
system.mem_ctrl.writePktSize::3                187992                       # Write request sizes (log2)
system.mem_ctrl.writePktSize::4                     0                       # Write request sizes (log2)
system.mem_ctrl.writePktSize::5                     0                       # Write request sizes (log2)
system.mem_ctrl.writePktSize::6                     0                       # Write request sizes (log2)
system.mem_ctrl.rdQLenPdf::0                   654172                       # What read queue length does an incoming req see
system.mem_ctrl.rdQLenPdf::1                   212718                       # What read queue length does an incoming req see
system.mem_ctrl.rdQLenPdf::2                     3800                       # What read queue length does an incoming req see
system.mem_ctrl.rdQLenPdf::3                        0                       # What read queue length does an incoming req see
system.mem_ctrl.rdQLenPdf::4                        0                       # What read queue length does an incoming req see
system.mem_ctrl.rdQLenPdf::5                        0                       # What read queue length does an incoming req see
system.mem_ctrl.rdQLenPdf::6                        0                       # What read queue length does an incoming req see
system.mem_ctrl.rdQLenPdf::7                        0                       # What read queue length does an incoming req see
system.mem_ctrl.rdQLenPdf::8                        0                       # What read queue length does an incoming req see
system.mem_ctrl.rdQLenPdf::9                        0                       # What read queue length does an incoming req see
system.mem_ctrl.rdQLenPdf::10                       0                       # What read queue length does an incoming req see
system.mem_ctrl.rdQLenPdf::11                       0                       # What read queue length does an incoming req see
system.mem_ctrl.rdQLenPdf::12                       0                       # What read queue length does an incoming req see
system.mem_ctrl.rdQLenPdf::13                       0                       # What read queue length does an incoming req see
system.mem_ctrl.rdQLenPdf::14                       0                       # What read queue length does an incoming req see
system.mem_ctrl.rdQLenPdf::15                       0                       # What read queue length does an incoming req see
system.mem_ctrl.rdQLenPdf::16                       0                       # What read queue length does an incoming req see
system.mem_ctrl.rdQLenPdf::17                       0                       # What read queue length does an incoming req see
system.mem_ctrl.rdQLenPdf::18                       0                       # What read queue length does an incoming req see
system.mem_ctrl.rdQLenPdf::19                       0                       # What read queue length does an incoming req see
system.mem_ctrl.rdQLenPdf::20                       0                       # What read queue length does an incoming req see
system.mem_ctrl.rdQLenPdf::21                       0                       # What read queue length does an incoming req see
system.mem_ctrl.rdQLenPdf::22                       0                       # What read queue length does an incoming req see
system.mem_ctrl.rdQLenPdf::23                       0                       # What read queue length does an incoming req see
system.mem_ctrl.rdQLenPdf::24                       0                       # What read queue length does an incoming req see
system.mem_ctrl.rdQLenPdf::25                       0                       # What read queue length does an incoming req see
system.mem_ctrl.rdQLenPdf::26                       0                       # What read queue length does an incoming req see
system.mem_ctrl.rdQLenPdf::27                       0                       # What read queue length does an incoming req see
system.mem_ctrl.rdQLenPdf::28                       0                       # What read queue length does an incoming req see
system.mem_ctrl.rdQLenPdf::29                       0                       # What read queue length does an incoming req see
system.mem_ctrl.rdQLenPdf::30                       0                       # What read queue length does an incoming req see
system.mem_ctrl.rdQLenPdf::31                       0                       # What read queue length does an incoming req see
system.mem_ctrl.wrQLenPdf::0                        1                       # What write queue length does an incoming req see
system.mem_ctrl.wrQLenPdf::1                        1                       # What write queue length does an incoming req see
system.mem_ctrl.wrQLenPdf::2                        1                       # What write queue length does an incoming req see
system.mem_ctrl.wrQLenPdf::3                        1                       # What write queue length does an incoming req see
system.mem_ctrl.wrQLenPdf::4                        1                       # What write queue length does an incoming req see
system.mem_ctrl.wrQLenPdf::5                        1                       # What write queue length does an incoming req see
system.mem_ctrl.wrQLenPdf::6                        1                       # What write queue length does an incoming req see
system.mem_ctrl.wrQLenPdf::7                        1                       # What write queue length does an incoming req see
system.mem_ctrl.wrQLenPdf::8                        1                       # What write queue length does an incoming req see
system.mem_ctrl.wrQLenPdf::9                        1                       # What write queue length does an incoming req see
system.mem_ctrl.wrQLenPdf::10                       1                       # What write queue length does an incoming req see
system.mem_ctrl.wrQLenPdf::11                       1                       # What write queue length does an incoming req see
system.mem_ctrl.wrQLenPdf::12                       1                       # What write queue length does an incoming req see
system.mem_ctrl.wrQLenPdf::13                       1                       # What write queue length does an incoming req see
system.mem_ctrl.wrQLenPdf::14                       1                       # What write queue length does an incoming req see
system.mem_ctrl.wrQLenPdf::15                       2                       # What write queue length does an incoming req see
system.mem_ctrl.wrQLenPdf::16                       2                       # What write queue length does an incoming req see
system.mem_ctrl.wrQLenPdf::17                     490                       # What write queue length does an incoming req see
system.mem_ctrl.wrQLenPdf::18                     499                       # What write queue length does an incoming req see
system.mem_ctrl.wrQLenPdf::19                     507                       # What write queue length does an incoming req see
system.mem_ctrl.wrQLenPdf::20                     505                       # What write queue length does an incoming req see
system.mem_ctrl.wrQLenPdf::21                     504                       # What write queue length does an incoming req see
system.mem_ctrl.wrQLenPdf::22                     506                       # What write queue length does an incoming req see
system.mem_ctrl.wrQLenPdf::23                     510                       # What write queue length does an incoming req see
system.mem_ctrl.wrQLenPdf::24                     509                       # What write queue length does an incoming req see
system.mem_ctrl.wrQLenPdf::25                     504                       # What write queue length does an incoming req see
system.mem_ctrl.wrQLenPdf::26                     503                       # What write queue length does an incoming req see
system.mem_ctrl.wrQLenPdf::27                     505                       # What write queue length does an incoming req see
system.mem_ctrl.wrQLenPdf::28                     503                       # What write queue length does an incoming req see
system.mem_ctrl.wrQLenPdf::29                     503                       # What write queue length does an incoming req see
system.mem_ctrl.wrQLenPdf::30                     503                       # What write queue length does an incoming req see
system.mem_ctrl.wrQLenPdf::31                     504                       # What write queue length does an incoming req see
system.mem_ctrl.wrQLenPdf::32                     503                       # What write queue length does an incoming req see
system.mem_ctrl.wrQLenPdf::33                       0                       # What write queue length does an incoming req see
system.mem_ctrl.wrQLenPdf::34                       0                       # What write queue length does an incoming req see
system.mem_ctrl.wrQLenPdf::35                       0                       # What write queue length does an incoming req see
system.mem_ctrl.wrQLenPdf::36                       0                       # What write queue length does an incoming req see
system.mem_ctrl.wrQLenPdf::37                       0                       # What write queue length does an incoming req see
system.mem_ctrl.wrQLenPdf::38                       0                       # What write queue length does an incoming req see
system.mem_ctrl.wrQLenPdf::39                       0                       # What write queue length does an incoming req see
system.mem_ctrl.wrQLenPdf::40                       0                       # What write queue length does an incoming req see
system.mem_ctrl.wrQLenPdf::41                       0                       # What write queue length does an incoming req see
system.mem_ctrl.wrQLenPdf::42                       0                       # What write queue length does an incoming req see
system.mem_ctrl.wrQLenPdf::43                       0                       # What write queue length does an incoming req see
system.mem_ctrl.wrQLenPdf::44                       0                       # What write queue length does an incoming req see
system.mem_ctrl.wrQLenPdf::45                       0                       # What write queue length does an incoming req see
system.mem_ctrl.wrQLenPdf::46                       0                       # What write queue length does an incoming req see
system.mem_ctrl.wrQLenPdf::47                       0                       # What write queue length does an incoming req see
system.mem_ctrl.wrQLenPdf::48                       0                       # What write queue length does an incoming req see
system.mem_ctrl.wrQLenPdf::49                       0                       # What write queue length does an incoming req see
system.mem_ctrl.wrQLenPdf::50                       0                       # What write queue length does an incoming req see
system.mem_ctrl.wrQLenPdf::51                       0                       # What write queue length does an incoming req see
system.mem_ctrl.wrQLenPdf::52                       0                       # What write queue length does an incoming req see
system.mem_ctrl.wrQLenPdf::53                       0                       # What write queue length does an incoming req see
system.mem_ctrl.wrQLenPdf::54                       0                       # What write queue length does an incoming req see
system.mem_ctrl.wrQLenPdf::55                       0                       # What write queue length does an incoming req see
system.mem_ctrl.wrQLenPdf::56                       0                       # What write queue length does an incoming req see
system.mem_ctrl.wrQLenPdf::57                       0                       # What write queue length does an incoming req see
system.mem_ctrl.wrQLenPdf::58                       0                       # What write queue length does an incoming req see
system.mem_ctrl.wrQLenPdf::59                       0                       # What write queue length does an incoming req see
system.mem_ctrl.wrQLenPdf::60                       0                       # What write queue length does an incoming req see
system.mem_ctrl.wrQLenPdf::61                       0                       # What write queue length does an incoming req see
system.mem_ctrl.wrQLenPdf::62                       0                       # What write queue length does an incoming req see
system.mem_ctrl.wrQLenPdf::63                       0                       # What write queue length does an incoming req see
system.mem_ctrl.bytesPerActivate::samples        96690                       # Bytes accessed per row activation
system.mem_ctrl.bytesPerActivate::mean     581.615638                       # Bytes accessed per row activation
system.mem_ctrl.bytesPerActivate::gmean    398.725058                       # Bytes accessed per row activation
system.mem_ctrl.bytesPerActivate::stdev    385.921236                       # Bytes accessed per row activation
system.mem_ctrl.bytesPerActivate::0-127         14693     15.20%     15.20% # Bytes accessed per row activation
system.mem_ctrl.bytesPerActivate::128-255        13901     14.38%     29.57% # Bytes accessed per row activation
system.mem_ctrl.bytesPerActivate::256-383         8109      8.39%     37.96% # Bytes accessed per row activation
system.mem_ctrl.bytesPerActivate::384-511         6115      6.32%     44.28% # Bytes accessed per row activation
system.mem_ctrl.bytesPerActivate::512-639         7517      7.77%     52.06% # Bytes accessed per row activation
system.mem_ctrl.bytesPerActivate::640-767         4185      4.33%     56.39% # Bytes accessed per row activation
system.mem_ctrl.bytesPerActivate::768-895         6408      6.63%     63.01% # Bytes accessed per row activation
system.mem_ctrl.bytesPerActivate::896-1023         3328      3.44%     66.46% # Bytes accessed per row activation
system.mem_ctrl.bytesPerActivate::1024-1151        32434     33.54%    100.00% # Bytes accessed per row activation
system.mem_ctrl.bytesPerActivate::total         96690                       # Bytes accessed per row activation
system.mem_ctrl.rdPerTurnAround::samples          503                       # Reads before turning the bus around for writes
system.mem_ctrl.rdPerTurnAround::mean     1730.212724                       # Reads before turning the bus around for writes
system.mem_ctrl.rdPerTurnAround::gmean     944.552767                       # Reads before turning the bus around for writes
system.mem_ctrl.rdPerTurnAround::stdev    1391.016501                       # Reads before turning the bus around for writes
system.mem_ctrl.rdPerTurnAround::0-255            144     28.63%     28.63% # Reads before turning the bus around for writes
system.mem_ctrl.rdPerTurnAround::256-511           13      2.58%     31.21% # Reads before turning the bus around for writes
system.mem_ctrl.rdPerTurnAround::512-767           11      2.19%     33.40% # Reads before turning the bus around for writes
system.mem_ctrl.rdPerTurnAround::768-1023            9      1.79%     35.19% # Reads before turning the bus around for writes
system.mem_ctrl.rdPerTurnAround::1024-1279           27      5.37%     40.56% # Reads before turning the bus around for writes
system.mem_ctrl.rdPerTurnAround::1280-1535           19      3.78%     44.33% # Reads before turning the bus around for writes
system.mem_ctrl.rdPerTurnAround::1536-1791           16      3.18%     47.51% # Reads before turning the bus around for writes
system.mem_ctrl.rdPerTurnAround::1792-2047           45      8.95%     56.46% # Reads before turning the bus around for writes
system.mem_ctrl.rdPerTurnAround::2048-2303           51     10.14%     66.60% # Reads before turning the bus around for writes
system.mem_ctrl.rdPerTurnAround::2304-2559           30      5.96%     72.56% # Reads before turning the bus around for writes
system.mem_ctrl.rdPerTurnAround::2560-2815           19      3.78%     76.34% # Reads before turning the bus around for writes
system.mem_ctrl.rdPerTurnAround::2816-3071           25      4.97%     81.31% # Reads before turning the bus around for writes
system.mem_ctrl.rdPerTurnAround::3072-3327           33      6.56%     87.87% # Reads before turning the bus around for writes
system.mem_ctrl.rdPerTurnAround::3328-3583           21      4.17%     92.05% # Reads before turning the bus around for writes
system.mem_ctrl.rdPerTurnAround::3584-3839           32      6.36%     98.41% # Reads before turning the bus around for writes
system.mem_ctrl.rdPerTurnAround::3840-4095            1      0.20%     98.61% # Reads before turning the bus around for writes
system.mem_ctrl.rdPerTurnAround::4352-4607            1      0.20%     98.81% # Reads before turning the bus around for writes
system.mem_ctrl.rdPerTurnAround::7168-7423            1      0.20%     99.01% # Reads before turning the bus around for writes
system.mem_ctrl.rdPerTurnAround::7424-7679            4      0.80%     99.80% # Reads before turning the bus around for writes
system.mem_ctrl.rdPerTurnAround::7680-7935            1      0.20%    100.00% # Reads before turning the bus around for writes
system.mem_ctrl.rdPerTurnAround::total            503                       # Reads before turning the bus around for writes
system.mem_ctrl.wrPerTurnAround::samples          503                       # Writes before turning the bus around for reads
system.mem_ctrl.wrPerTurnAround::mean       16.007952                       # Writes before turning the bus around for reads
system.mem_ctrl.wrPerTurnAround::gmean      16.007100                       # Writes before turning the bus around for reads
system.mem_ctrl.wrPerTurnAround::stdev       0.178351                       # Writes before turning the bus around for reads
system.mem_ctrl.wrPerTurnAround::16               502     99.80%     99.80% # Writes before turning the bus around for reads
system.mem_ctrl.wrPerTurnAround::20                 1      0.20%    100.00% # Writes before turning the bus around for reads
system.mem_ctrl.wrPerTurnAround::total            503                       # Writes before turning the bus around for reads
system.mem_ctrl.bytesReadDRAM                55724160                       # Total number of bytes read from DRAM
system.mem_ctrl.bytesReadWrQ                  2909312                       # Total number of bytes read from write queue
system.mem_ctrl.bytesWritten                   515328                       # Total number of bytes written to DRAM
system.mem_ctrl.bytesReadSys                 40936777                       # Total read bytes from the system interface side
system.mem_ctrl.bytesWrittenSys               1609298                       # Total written bytes from the system interface side
system.mem_ctrl.avgRdBW                       1578.20                       # Average DRAM read bandwidth in MiByte/s
system.mem_ctrl.avgWrBW                         14.59                       # Average achieved write bandwidth in MiByte/s
system.mem_ctrl.avgRdBWSys                    1159.39                       # Average system read bandwidth in MiByte/s
system.mem_ctrl.avgWrBWSys                      45.58                       # Average system write bandwidth in MiByte/s
system.mem_ctrl.peakBW                       12800.00                       # Theoretical peak bandwidth in MiByte/s
system.mem_ctrl.busUtil                         12.44                       # Data bus utilization in percentage
system.mem_ctrl.busUtilRead                     12.33                       # Data bus utilization in percentage for reads
system.mem_ctrl.busUtilWrite                     0.11                       # Data bus utilization in percentage for writes
system.mem_ctrl.totGap                    35308753000                       # Total gap between requests
system.mem_ctrl.avgGap                       30218.01                       # Average gap between requests
system.mem_ctrl.masterReadBytes::.cpu.inst     39055552                       # Per-master bytes read from memory
system.mem_ctrl.masterReadBytes::.cpu.data      1567764                       # Per-master bytes read from memory
system.mem_ctrl.masterWriteBytes::.cpu.data        59100                       # Per-master bytes write to memory
system.mem_ctrl.masterReadRate::.cpu.inst 1106115020.402018070221                       # Per-master bytes read from memory rate (Bytes/sec)
system.mem_ctrl.masterReadRate::.cpu.data 44401556.758064754307                       # Per-master bytes read from memory rate (Bytes/sec)
system.mem_ctrl.masterWriteRate::.cpu.data 1673805.499042985495                       # Per-master bytes write to memory rate (Bytes/sec)
system.mem_ctrl.masterReadAccesses::.cpu.inst       610243                       # Per-master read serviced memory accesses
system.mem_ctrl.masterReadAccesses::.cpu.data       305905                       # Per-master read serviced memory accesses
system.mem_ctrl.masterWriteAccesses::.cpu.data       252319                       # Per-master write serviced memory accesses
system.mem_ctrl.masterReadTotalLat::.cpu.inst  13820610250                       # Per-master read total memory access latency
system.mem_ctrl.masterReadTotalLat::.cpu.data   6544420500                       # Per-master read total memory access latency
system.mem_ctrl.masterWriteTotalLat::.cpu.data 920019331000                       # Per-master write total memory access latency
system.mem_ctrl.masterReadAvgLat::.cpu.inst     22647.72                       # Per-master read average memory access latency
system.mem_ctrl.masterReadAvgLat::.cpu.data     21393.64                       # Per-master read average memory access latency
system.mem_ctrl.masterWriteAvgLat::.cpu.data   3646254.67                       # Per-master write average memory access latency
system.mem_ctrl.pageHitRate                     88.99                       # Row buffer hit rate, read and write combined
system.mem_ctrl.rank1.actEnergy             119416500                       # Energy for activate commands per rank (pJ)
system.mem_ctrl.rank1.preEnergy              63463785                       # Energy for precharge commands per rank (pJ)
system.mem_ctrl.rank1.readEnergy            874193040                       # Energy for read commands per rank (pJ)
system.mem_ctrl.rank1.writeEnergy            18055980                       # Energy for write commands per rank (pJ)
system.mem_ctrl.rank1.refreshEnergy      2786777760.000000                       # Energy for refresh commands per rank (pJ)
system.mem_ctrl.rank1.actBackEnergy       14021705310                       # Energy for active background per rank (pJ)
system.mem_ctrl.rank1.preBackEnergy        1750812960                       # Energy for precharge background per rank (pJ)
system.mem_ctrl.rank1.actPowerDownEnergy            0                       # Energy for active power-down per rank (pJ)
system.mem_ctrl.rank1.prePowerDownEnergy            0                       # Energy for precharge power-down per rank (pJ)
system.mem_ctrl.rank1.selfRefreshEnergy             0                       # Energy for self refresh per rank (pJ)
system.mem_ctrl.rank1.totalEnergy         19634425335                       # Total energy per rank (pJ)
system.mem_ctrl.rank1.averagePower         556.077988                       # Core power per rank (mW)
system.mem_ctrl.rank1.totalIdleTime                 0                       # Total Idle time Per DRAM Rank
system.mem_ctrl.rank1.memoryStateTime::IDLE   4404552250                       # Time in different power states
system.mem_ctrl.rank1.memoryStateTime::REF   1178840000                       # Time in different power states
system.mem_ctrl.rank1.memoryStateTime::SREF            0                       # Time in different power states
system.mem_ctrl.rank1.memoryStateTime::PRE_PDN            0                       # Time in different power states
system.mem_ctrl.rank1.memoryStateTime::ACT  29725369750                       # Time in different power states
system.mem_ctrl.rank1.memoryStateTime::ACT_PDN            0                       # Time in different power states
system.mem_ctrl.rank0.actEnergy             571000080                       # Energy for activate commands per rank (pJ)
system.mem_ctrl.rank0.preEnergy             303474765                       # Energy for precharge commands per rank (pJ)
system.mem_ctrl.rank0.readEnergy           5342533560                       # Energy for read commands per rank (pJ)
system.mem_ctrl.rank0.writeEnergy            23975460                       # Energy for write commands per rank (pJ)
system.mem_ctrl.rank0.refreshEnergy      2786777760.000000                       # Energy for refresh commands per rank (pJ)
system.mem_ctrl.rank0.actBackEnergy       16003216830                       # Energy for active background per rank (pJ)
system.mem_ctrl.rank0.preBackEnergy          82171680                       # Energy for precharge background per rank (pJ)
system.mem_ctrl.rank0.actPowerDownEnergy            0                       # Energy for active power-down per rank (pJ)
system.mem_ctrl.rank0.prePowerDownEnergy            0                       # Energy for precharge power-down per rank (pJ)
system.mem_ctrl.rank0.selfRefreshEnergy             0                       # Energy for self refresh per rank (pJ)
system.mem_ctrl.rank0.totalEnergy         25113150135                       # Total energy per rank (pJ)
system.mem_ctrl.rank0.averagePower         711.244142                       # Core power per rank (mW)
system.mem_ctrl.rank0.totalIdleTime                 0                       # Total Idle time Per DRAM Rank
system.mem_ctrl.rank0.memoryStateTime::IDLE     69312750                       # Time in different power states
system.mem_ctrl.rank0.memoryStateTime::REF   1178840000                       # Time in different power states
system.mem_ctrl.rank0.memoryStateTime::SREF            0                       # Time in different power states
system.mem_ctrl.rank0.memoryStateTime::PRE_PDN            0                       # Time in different power states
system.mem_ctrl.rank0.memoryStateTime::ACT  34060609250                       # Time in different power states
system.mem_ctrl.rank0.memoryStateTime::ACT_PDN            0                       # Time in different power states
system.clk_domain.clock                          1000                       # Clock period in ticks
system.clk_domain.voltage_domain.voltage            1                       # Voltage in Volts
system.cpu.pwrStateResidencyTicks::ON     35308762000                       # Cumulative time (in ticks) in various power states

---------- End Simulation Statistics   ----------
