
---------- Begin Simulation Statistics ----------
final_tick                                34718521000                       # Number of ticks from beginning of simulation (restored from checkpoints and never reset)
host_inst_rate                                  69703                       # Simulator instruction rate (inst/s)
host_mem_usage                                8498616                       # Number of bytes of host memory used
host_op_rate                                    69701                       # Simulator op (including micro ops) rate (op/s)
host_seconds                                    26.59                       # Real time elapsed on the host
host_tick_rate                             1305923713                       # Simulator tick rate (ticks/s)
sim_freq                                 1000000000000                       # Frequency of simulated ticks
sim_insts                                     1852988                       # Number of instructions simulated
sim_ops                                       1852988                       # Number of ops (including micro ops) simulated
sim_seconds                                  0.034719                       # Number of seconds simulated
sim_ticks                                 34718521000                       # Number of ticks simulated
system.cpu.branchPred.BTBCorrect                    0                       # Number of correct BTB predictions (this stat may not work properly.
system.cpu.branchPred.BTBHitPct             70.822128                       # BTB Hit Percentage
system.cpu.branchPred.BTBHits                  204620                       # Number of BTB hits
system.cpu.branchPred.BTBLookups               288921                       # Number of BTB lookups
system.cpu.branchPred.RASInCorrect                  0                       # Number of incorrect RAS predictions.
system.cpu.branchPred.condIncorrect             11251                       # Number of conditional branches incorrect
system.cpu.branchPred.condPredicted            309416                       # Number of conditional branches predicted
system.cpu.branchPred.indirectHits              52981                       # Number of indirect target hits.
system.cpu.branchPred.indirectLookups           55839                       # Number of indirect predictor lookups.
system.cpu.branchPred.indirectMisses             2858                       # Number of indirect misses.
system.cpu.branchPred.lookups                  452386                       # Number of BP lookups
system.cpu.branchPred.usedRAS                       0                       # Number of times the RAS was used to get a target.
system.cpu.branchPredindirectMispredicted         7863                       # Number of mispredicted indirect branches.
system.cpu.committedInsts                     1852988                       # Number of instructions committed
system.cpu.committedOps                       1852988                       # Number of ops (including micro ops) committed
system.cpu.cpi                              18.736506                       # CPI: cycles per instruction
system.cpu.discardedOps                         26111                       # Number of ops (including micro ops) which were discarded before commit
system.cpu.dtb.accesses                             0                       # DTB accesses
system.cpu.dtb.hits                                 0                       # DTB hits
system.cpu.dtb.misses                               0                       # DTB misses
system.cpu.dtb.read_accesses                        0                       # DTB read accesses
system.cpu.dtb.read_hits                            0                       # DTB read hits
system.cpu.dtb.read_misses                          0                       # DTB read misses
system.cpu.dtb.write_accesses                       0                       # DTB write accesses
system.cpu.dtb.write_hits                           0                       # DTB write hits
system.cpu.dtb.write_misses                         0                       # DTB write misses
system.cpu.fetch2.amo_instructions                  0                       # Number of memory atomic instructions successfully decoded
system.cpu.fetch2.fp_instructions                   0                       # Number of floating point instructions successfully decoded
system.cpu.fetch2.int_instructions            1344067                       # Number of integer instructions successfully decoded
system.cpu.fetch2.load_instructions            326444                       # Number of memory load instructions successfully decoded
system.cpu.fetch2.store_instructions           269859                       # Number of memory store instructions successfully decoded
system.cpu.fetch2.vec_instructions                  0                       # Number of SIMD instructions successfully decoded
system.cpu.idleCycles                        29453532                       # Total number of cycles that the object has spent stopped
system.cpu.ipc                               0.053372                       # IPC: instructions per cycle
system.cpu.itb.accesses                             0                       # DTB accesses
system.cpu.itb.hits                                 0                       # DTB hits
system.cpu.itb.misses                               0                       # DTB misses
system.cpu.itb.read_accesses                        0                       # DTB read accesses
system.cpu.itb.read_hits                            0                       # DTB read hits
system.cpu.itb.read_misses                          0                       # DTB read misses
system.cpu.itb.write_accesses                       0                       # DTB write accesses
system.cpu.itb.write_hits                           0                       # DTB write hits
system.cpu.itb.write_misses                         0                       # DTB write misses
system.cpu.numCycles                         34718521                       # number of cpu cycles simulated
system.cpu.numFetchSuspends                         0                       # Number of times Execute suspended instruction fetching
system.cpu.numWorkItemsCompleted                    0                       # number of work items this cpu completed
system.cpu.numWorkItemsStarted                      0                       # number of work items this cpu started
system.cpu.op_class_0::No_OpClass                  76      0.00%      0.00% # Class of committed instruction
system.cpu.op_class_0::IntAlu                 1265843     68.31%     68.32% # Class of committed instruction
system.cpu.op_class_0::IntMult                  14655      0.79%     69.11% # Class of committed instruction
system.cpu.op_class_0::IntDiv                   12506      0.67%     69.78% # Class of committed instruction
system.cpu.op_class_0::FloatAdd                     0      0.00%     69.78% # Class of committed instruction
system.cpu.op_class_0::FloatCmp                     0      0.00%     69.78% # Class of committed instruction
system.cpu.op_class_0::FloatCvt                     0      0.00%     69.78% # Class of committed instruction
system.cpu.op_class_0::FloatMult                    0      0.00%     69.78% # Class of committed instruction
system.cpu.op_class_0::FloatMultAcc                 0      0.00%     69.78% # Class of committed instruction
system.cpu.op_class_0::FloatDiv                     0      0.00%     69.78% # Class of committed instruction
system.cpu.op_class_0::FloatMisc                    0      0.00%     69.78% # Class of committed instruction
system.cpu.op_class_0::FloatSqrt                    0      0.00%     69.78% # Class of committed instruction
system.cpu.op_class_0::SimdAdd                      0      0.00%     69.78% # Class of committed instruction
system.cpu.op_class_0::SimdAddAcc                   0      0.00%     69.78% # Class of committed instruction
system.cpu.op_class_0::SimdAlu                      0      0.00%     69.78% # Class of committed instruction
system.cpu.op_class_0::SimdCmp                      0      0.00%     69.78% # Class of committed instruction
system.cpu.op_class_0::SimdCvt                      0      0.00%     69.78% # Class of committed instruction
system.cpu.op_class_0::SimdMisc                     0      0.00%     69.78% # Class of committed instruction
system.cpu.op_class_0::SimdMult                     0      0.00%     69.78% # Class of committed instruction
system.cpu.op_class_0::SimdMultAcc                  0      0.00%     69.78% # Class of committed instruction
system.cpu.op_class_0::SimdShift                    0      0.00%     69.78% # Class of committed instruction
system.cpu.op_class_0::SimdShiftAcc                 0      0.00%     69.78% # Class of committed instruction
system.cpu.op_class_0::SimdDiv                      0      0.00%     69.78% # Class of committed instruction
system.cpu.op_class_0::SimdSqrt                     0      0.00%     69.78% # Class of committed instruction
system.cpu.op_class_0::SimdFloatAdd                 0      0.00%     69.78% # Class of committed instruction
system.cpu.op_class_0::SimdFloatAlu                 0      0.00%     69.78% # Class of committed instruction
system.cpu.op_class_0::SimdFloatCmp                 0      0.00%     69.78% # Class of committed instruction
system.cpu.op_class_0::SimdFloatCvt                 0      0.00%     69.78% # Class of committed instruction
system.cpu.op_class_0::SimdFloatDiv                 0      0.00%     69.78% # Class of committed instruction
system.cpu.op_class_0::SimdFloatMisc                0      0.00%     69.78% # Class of committed instruction
system.cpu.op_class_0::SimdFloatMult                0      0.00%     69.78% # Class of committed instruction
system.cpu.op_class_0::SimdFloatMultAcc             0      0.00%     69.78% # Class of committed instruction
system.cpu.op_class_0::SimdFloatSqrt                0      0.00%     69.78% # Class of committed instruction
system.cpu.op_class_0::SimdReduceAdd                0      0.00%     69.78% # Class of committed instruction
system.cpu.op_class_0::SimdReduceAlu                0      0.00%     69.78% # Class of committed instruction
system.cpu.op_class_0::SimdReduceCmp                0      0.00%     69.78% # Class of committed instruction
system.cpu.op_class_0::SimdFloatReduceAdd            0      0.00%     69.78% # Class of committed instruction
system.cpu.op_class_0::SimdFloatReduceCmp            0      0.00%     69.78% # Class of committed instruction
system.cpu.op_class_0::SimdAes                      0      0.00%     69.78% # Class of committed instruction
system.cpu.op_class_0::SimdAesMix                   0      0.00%     69.78% # Class of committed instruction
system.cpu.op_class_0::SimdSha1Hash                 0      0.00%     69.78% # Class of committed instruction
system.cpu.op_class_0::SimdSha1Hash2                0      0.00%     69.78% # Class of committed instruction
system.cpu.op_class_0::SimdSha256Hash               0      0.00%     69.78% # Class of committed instruction
system.cpu.op_class_0::SimdSha256Hash2              0      0.00%     69.78% # Class of committed instruction
system.cpu.op_class_0::SimdShaSigma2                0      0.00%     69.78% # Class of committed instruction
system.cpu.op_class_0::SimdShaSigma3                0      0.00%     69.78% # Class of committed instruction
system.cpu.op_class_0::SimdPredAlu                  0      0.00%     69.78% # Class of committed instruction
system.cpu.op_class_0::MemRead                 304269     16.42%     86.20% # Class of committed instruction
system.cpu.op_class_0::MemWrite                255639     13.80%    100.00% # Class of committed instruction
system.cpu.op_class_0::FloatMemRead                 0      0.00%    100.00% # Class of committed instruction
system.cpu.op_class_0::FloatMemWrite                0      0.00%    100.00% # Class of committed instruction
system.cpu.op_class_0::IprAccess                    0      0.00%    100.00% # Class of committed instruction
system.cpu.op_class_0::InstPrefetch                 0      0.00%    100.00% # Class of committed instruction
system.cpu.op_class_0::total                  1852988                       # Class of committed instruction
system.cpu.tickCycles                         5264989                       # Number of cycles that the object actually ticked
system.cpu.workload.numSyscalls                    76                       # Number of system calls
system.membus.snoop_filter.hit_multi_requests            0                       # Number of requests hitting in the snoop filter with multiple (>1) holders of the requested data.
system.membus.snoop_filter.hit_multi_snoops            0                       # Number of snoops hitting in the snoop filter with multiple (>1) holders of the requested data.
system.membus.snoop_filter.hit_single_requests            0                       # Number of requests hitting in the snoop filter with a single holder of the requested data.
system.membus.snoop_filter.hit_single_snoops            0                       # Number of snoops hitting in the snoop filter with a single holder of the requested data.
system.membus.snoop_filter.tot_requests             0                       # Total number of requests made to the snoop filter.
system.membus.snoop_filter.tot_snoops               0                       # Total number of snoops made to the snoop filter.
system.membus.pwrStateResidencyTicks::UNDEFINED  34718521000                       # Cumulative time (in ticks) in various power states
system.membus.trans_dist::ReadReq              911126                       # Transaction distribution
system.membus.trans_dist::ReadResp             911125                       # Transaction distribution
system.membus.trans_dist::WriteReq             255639                       # Transaction distribution
system.membus.trans_dist::WriteResp            255639                       # Transaction distribution
system.membus.pkt_count_system.cpu.fetch1.icache_port::system.mem_ctrl.port      1219891                       # Packet count per connected master and slave (bytes)
system.membus.pkt_count_system.cpu.execute.dcache_port::system.mem_ctrl.port      1113638                       # Packet count per connected master and slave (bytes)
system.membus.pkt_count::total                2333529                       # Packet count per connected master and slave (bytes)
system.membus.pkt_size_system.cpu.fetch1.icache_port::system.mem_ctrl.port     39036480                       # Cumulative packet size per connected master and slave (bytes)
system.membus.pkt_size_system.cpu.execute.dcache_port::system.mem_ctrl.port      3552822                       # Cumulative packet size per connected master and slave (bytes)
system.membus.pkt_size::total                42589302                       # Cumulative packet size per connected master and slave (bytes)
system.membus.snoops                                0                       # Total snoops (count)
system.membus.snoopTraffic                          0                       # Total snoop traffic (bytes)
system.membus.snoop_fanout::samples           1166765                       # Request fanout histogram
system.membus.snoop_fanout::mean                    0                       # Request fanout histogram
system.membus.snoop_fanout::stdev                   0                       # Request fanout histogram
system.membus.snoop_fanout::underflows              0      0.00%      0.00% # Request fanout histogram
system.membus.snoop_fanout::0                 1166765    100.00%    100.00% # Request fanout histogram
system.membus.snoop_fanout::1                       0      0.00%    100.00% # Request fanout histogram
system.membus.snoop_fanout::overflows               0      0.00%    100.00% # Request fanout histogram
system.membus.snoop_fanout::min_value               0                       # Request fanout histogram
system.membus.snoop_fanout::max_value               0                       # Request fanout histogram
system.membus.snoop_fanout::total             1166765                       # Request fanout histogram
system.membus.reqLayer0.occupancy          1422404000                       # Layer occupancy (ticks)
system.membus.reqLayer0.utilization               4.1                       # Layer utilization (%)
system.membus.respLayer1.occupancy          978450748                       # Layer occupancy (ticks)
system.membus.respLayer1.utilization              2.8                       # Layer utilization (%)
system.membus.respLayer0.occupancy         3225119750                       # Layer occupancy (ticks)
system.membus.respLayer0.utilization              9.3                       # Layer utilization (%)
system.mem_ctrl.pwrStateResidencyTicks::UNDEFINED  34718521000                       # Cumulative time (in ticks) in various power states
system.mem_ctrl.bytes_read::.cpu.inst        39036480                       # Number of bytes read from this memory
system.mem_ctrl.bytes_read::.cpu.data         1890605                       # Number of bytes read from this memory
system.mem_ctrl.bytes_read::total            40927085                       # Number of bytes read from this memory
system.mem_ctrl.bytes_inst_read::.cpu.inst     39036480                       # Number of instructions bytes read from this memory
system.mem_ctrl.bytes_inst_read::total       39036480                       # Number of instructions bytes read from this memory
system.mem_ctrl.bytes_written::.cpu.data      1662217                       # Number of bytes written to this memory
system.mem_ctrl.bytes_written::total          1662217                       # Number of bytes written to this memory
system.mem_ctrl.num_reads::.cpu.inst           609945                       # Number of read requests responded to by this memory
system.mem_ctrl.num_reads::.cpu.data           301180                       # Number of read requests responded to by this memory
system.mem_ctrl.num_reads::total               911125                       # Number of read requests responded to by this memory
system.mem_ctrl.num_writes::.cpu.data          255639                       # Number of write requests responded to by this memory
system.mem_ctrl.num_writes::total              255639                       # Number of write requests responded to by this memory
system.mem_ctrl.bw_read::.cpu.inst         1124370476                       # Total read bandwidth from this memory (bytes/s)
system.mem_ctrl.bw_read::.cpu.data           54455229                       # Total read bandwidth from this memory (bytes/s)
system.mem_ctrl.bw_read::total             1178825705                       # Total read bandwidth from this memory (bytes/s)
system.mem_ctrl.bw_inst_read::.cpu.inst    1124370476                       # Instruction read bandwidth from this memory (bytes/s)
system.mem_ctrl.bw_inst_read::total        1124370476                       # Instruction read bandwidth from this memory (bytes/s)
system.mem_ctrl.bw_write::.cpu.data          47876953                       # Write bandwidth from this memory (bytes/s)
system.mem_ctrl.bw_write::total              47876953                       # Write bandwidth from this memory (bytes/s)
system.mem_ctrl.bw_total::.cpu.inst        1124370476                       # Total bandwidth to/from this memory (bytes/s)
system.mem_ctrl.bw_total::.cpu.data         102332182                       # Total bandwidth to/from this memory (bytes/s)
system.mem_ctrl.bw_total::total            1226702658                       # Total bandwidth to/from this memory (bytes/s)
system.mem_ctrl.avgPriority_.cpu.inst::samples    609946.00                       # Average QoS priority value for accepted requests
system.mem_ctrl.avgPriority_.cpu.data::samples    263797.00                       # Average QoS priority value for accepted requests
system.mem_ctrl.priorityMinLatency       0.000000018750                       # per QoS priority minimum request to response latency (s)
system.mem_ctrl.priorityMaxLatency       0.007561729250                       # per QoS priority maximum request to response latency (s)
system.mem_ctrl.numReadWriteTurnArounds           520                       # Number of turnarounds from READ to WRITE
system.mem_ctrl.numWriteReadTurnArounds           520                       # Number of turnarounds from WRITE to READ
system.mem_ctrl.numStayReadState              1992207                       # Number of times bus staying in READ state
system.mem_ctrl.numStayWriteState                7809                       # Number of times bus staying in WRITE state
system.mem_ctrl.readReqs                       911126                       # Number of read requests accepted
system.mem_ctrl.writeReqs                      255639                       # Number of write requests accepted
system.mem_ctrl.readBursts                     911126                       # Number of DRAM read bursts, including those serviced by the write queue
system.mem_ctrl.writeBursts                    255639                       # Number of DRAM write bursts, including those merged in the write queue
system.mem_ctrl.servicedByWrQ                   45734                       # Number of DRAM read bursts serviced by the write queue
system.mem_ctrl.mergedWrBursts                 247288                       # Number of DRAM write bursts merged with an existing one
system.mem_ctrl.neitherReadNorWriteReqs             0                       # Number of requests that are neither read nor write
system.mem_ctrl.perBankRdBursts::0              91431                       # Per bank write bursts
system.mem_ctrl.perBankRdBursts::1               4244                       # Per bank write bursts
system.mem_ctrl.perBankRdBursts::2              15487                       # Per bank write bursts
system.mem_ctrl.perBankRdBursts::3              67583                       # Per bank write bursts
system.mem_ctrl.perBankRdBursts::4             116095                       # Per bank write bursts
system.mem_ctrl.perBankRdBursts::5             138783                       # Per bank write bursts
system.mem_ctrl.perBankRdBursts::6             116857                       # Per bank write bursts
system.mem_ctrl.perBankRdBursts::7               4723                       # Per bank write bursts
system.mem_ctrl.perBankRdBursts::8               2512                       # Per bank write bursts
system.mem_ctrl.perBankRdBursts::9              29424                       # Per bank write bursts
system.mem_ctrl.perBankRdBursts::10             91041                       # Per bank write bursts
system.mem_ctrl.perBankRdBursts::11              7993                       # Per bank write bursts
system.mem_ctrl.perBankRdBursts::12            163961                       # Per bank write bursts
system.mem_ctrl.perBankRdBursts::13              5891                       # Per bank write bursts
system.mem_ctrl.perBankRdBursts::14              3583                       # Per bank write bursts
system.mem_ctrl.perBankRdBursts::15              5784                       # Per bank write bursts
system.mem_ctrl.perBankWrBursts::0                388                       # Per bank write bursts
system.mem_ctrl.perBankWrBursts::1                384                       # Per bank write bursts
system.mem_ctrl.perBankWrBursts::2                475                       # Per bank write bursts
system.mem_ctrl.perBankWrBursts::3                385                       # Per bank write bursts
system.mem_ctrl.perBankWrBursts::4                384                       # Per bank write bursts
system.mem_ctrl.perBankWrBursts::5                345                       # Per bank write bursts
system.mem_ctrl.perBankWrBursts::6                264                       # Per bank write bursts
system.mem_ctrl.perBankWrBursts::7                257                       # Per bank write bursts
system.mem_ctrl.perBankWrBursts::8                256                       # Per bank write bursts
system.mem_ctrl.perBankWrBursts::9                595                       # Per bank write bursts
system.mem_ctrl.perBankWrBursts::10               580                       # Per bank write bursts
system.mem_ctrl.perBankWrBursts::11               544                       # Per bank write bursts
system.mem_ctrl.perBankWrBursts::12              2187                       # Per bank write bursts
system.mem_ctrl.perBankWrBursts::13               499                       # Per bank write bursts
system.mem_ctrl.perBankWrBursts::14               391                       # Per bank write bursts
system.mem_ctrl.perBankWrBursts::15               388                       # Per bank write bursts
system.mem_ctrl.avgRdQLen                        1.31                       # Average read queue length when enqueuing
system.mem_ctrl.avgWrQLen                       26.47                       # Average write queue length when enqueuing
system.mem_ctrl.totQLat                    4059019000                       # Total ticks spent queuing
system.mem_ctrl.totBusLat                  4326960000                       # Total ticks spent in databus transfers
system.mem_ctrl.totMemAccLat              20285119000                       # Total ticks spent from burst creation until serviced by the DRAM
system.mem_ctrl.avgQLat                       4690.38                       # Average queueing delay per DRAM burst
system.mem_ctrl.avgBusLat                     5000.00                       # Average bus latency per DRAM burst
system.mem_ctrl.avgMemAccLat                 23440.38                       # Average memory access latency per DRAM burst
system.mem_ctrl.numRdRetry                          0                       # Number of times read queue was full causing retry
system.mem_ctrl.numWrRetry                          0                       # Number of times write queue was full causing retry
system.mem_ctrl.readRowHits                    768960                       # Number of row buffer hits during reads
system.mem_ctrl.writeRowHits                     7822                       # Number of row buffer hits during writes
system.mem_ctrl.readRowHitRate                  88.86                       # Row buffer hit rate for reads
system.mem_ctrl.writeRowHitRate                 93.67                       # Row buffer hit rate for writes
system.mem_ctrl.readPktSize::0                  50515                       # Read request sizes (log2)
system.mem_ctrl.readPktSize::1                  20739                       # Read request sizes (log2)
system.mem_ctrl.readPktSize::2                  10199                       # Read request sizes (log2)
system.mem_ctrl.readPktSize::3                 219727                       # Read request sizes (log2)
system.mem_ctrl.readPktSize::4                      0                       # Read request sizes (log2)
system.mem_ctrl.readPktSize::5                      0                       # Read request sizes (log2)
system.mem_ctrl.readPktSize::6                 609946                       # Read request sizes (log2)
system.mem_ctrl.writePktSize::0                 29627                       # Write request sizes (log2)
system.mem_ctrl.writePktSize::1                 22413                       # Write request sizes (log2)
system.mem_ctrl.writePktSize::2                 10257                       # Write request sizes (log2)
system.mem_ctrl.writePktSize::3                193342                       # Write request sizes (log2)
system.mem_ctrl.writePktSize::4                     0                       # Write request sizes (log2)
system.mem_ctrl.writePktSize::5                     0                       # Write request sizes (log2)
system.mem_ctrl.writePktSize::6                     0                       # Write request sizes (log2)
system.mem_ctrl.rdQLenPdf::0                   647625                       # What read queue length does an incoming req see
system.mem_ctrl.rdQLenPdf::1                   212528                       # What read queue length does an incoming req see
system.mem_ctrl.rdQLenPdf::2                     5239                       # What read queue length does an incoming req see
system.mem_ctrl.rdQLenPdf::3                        0                       # What read queue length does an incoming req see
system.mem_ctrl.rdQLenPdf::4                        0                       # What read queue length does an incoming req see
system.mem_ctrl.rdQLenPdf::5                        0                       # What read queue length does an incoming req see
system.mem_ctrl.rdQLenPdf::6                        0                       # What read queue length does an incoming req see
system.mem_ctrl.rdQLenPdf::7                        0                       # What read queue length does an incoming req see
system.mem_ctrl.rdQLenPdf::8                        0                       # What read queue length does an incoming req see
system.mem_ctrl.rdQLenPdf::9                        0                       # What read queue length does an incoming req see
system.mem_ctrl.rdQLenPdf::10                       0                       # What read queue length does an incoming req see
system.mem_ctrl.rdQLenPdf::11                       0                       # What read queue length does an incoming req see
system.mem_ctrl.rdQLenPdf::12                       0                       # What read queue length does an incoming req see
system.mem_ctrl.rdQLenPdf::13                       0                       # What read queue length does an incoming req see
system.mem_ctrl.rdQLenPdf::14                       0                       # What read queue length does an incoming req see
system.mem_ctrl.rdQLenPdf::15                       0                       # What read queue length does an incoming req see
system.mem_ctrl.rdQLenPdf::16                       0                       # What read queue length does an incoming req see
system.mem_ctrl.rdQLenPdf::17                       0                       # What read queue length does an incoming req see
system.mem_ctrl.rdQLenPdf::18                       0                       # What read queue length does an incoming req see
system.mem_ctrl.rdQLenPdf::19                       0                       # What read queue length does an incoming req see
system.mem_ctrl.rdQLenPdf::20                       0                       # What read queue length does an incoming req see
system.mem_ctrl.rdQLenPdf::21                       0                       # What read queue length does an incoming req see
system.mem_ctrl.rdQLenPdf::22                       0                       # What read queue length does an incoming req see
system.mem_ctrl.rdQLenPdf::23                       0                       # What read queue length does an incoming req see
system.mem_ctrl.rdQLenPdf::24                       0                       # What read queue length does an incoming req see
system.mem_ctrl.rdQLenPdf::25                       0                       # What read queue length does an incoming req see
system.mem_ctrl.rdQLenPdf::26                       0                       # What read queue length does an incoming req see
system.mem_ctrl.rdQLenPdf::27                       0                       # What read queue length does an incoming req see
system.mem_ctrl.rdQLenPdf::28                       0                       # What read queue length does an incoming req see
system.mem_ctrl.rdQLenPdf::29                       0                       # What read queue length does an incoming req see
system.mem_ctrl.rdQLenPdf::30                       0                       # What read queue length does an incoming req see
system.mem_ctrl.rdQLenPdf::31                       0                       # What read queue length does an incoming req see
system.mem_ctrl.wrQLenPdf::0                        1                       # What write queue length does an incoming req see
system.mem_ctrl.wrQLenPdf::1                        1                       # What write queue length does an incoming req see
system.mem_ctrl.wrQLenPdf::2                        1                       # What write queue length does an incoming req see
system.mem_ctrl.wrQLenPdf::3                        1                       # What write queue length does an incoming req see
system.mem_ctrl.wrQLenPdf::4                        1                       # What write queue length does an incoming req see
system.mem_ctrl.wrQLenPdf::5                        1                       # What write queue length does an incoming req see
system.mem_ctrl.wrQLenPdf::6                        1                       # What write queue length does an incoming req see
system.mem_ctrl.wrQLenPdf::7                        1                       # What write queue length does an incoming req see
system.mem_ctrl.wrQLenPdf::8                        1                       # What write queue length does an incoming req see
system.mem_ctrl.wrQLenPdf::9                        1                       # What write queue length does an incoming req see
system.mem_ctrl.wrQLenPdf::10                       1                       # What write queue length does an incoming req see
system.mem_ctrl.wrQLenPdf::11                       1                       # What write queue length does an incoming req see
system.mem_ctrl.wrQLenPdf::12                       1                       # What write queue length does an incoming req see
system.mem_ctrl.wrQLenPdf::13                       1                       # What write queue length does an incoming req see
system.mem_ctrl.wrQLenPdf::14                       1                       # What write queue length does an incoming req see
system.mem_ctrl.wrQLenPdf::15                       2                       # What write queue length does an incoming req see
system.mem_ctrl.wrQLenPdf::16                       2                       # What write queue length does an incoming req see
system.mem_ctrl.wrQLenPdf::17                     502                       # What write queue length does an incoming req see
system.mem_ctrl.wrQLenPdf::18                     517                       # What write queue length does an incoming req see
system.mem_ctrl.wrQLenPdf::19                     523                       # What write queue length does an incoming req see
system.mem_ctrl.wrQLenPdf::20                     521                       # What write queue length does an incoming req see
system.mem_ctrl.wrQLenPdf::21                     521                       # What write queue length does an incoming req see
system.mem_ctrl.wrQLenPdf::22                     523                       # What write queue length does an incoming req see
system.mem_ctrl.wrQLenPdf::23                     533                       # What write queue length does an incoming req see
system.mem_ctrl.wrQLenPdf::24                     524                       # What write queue length does an incoming req see
system.mem_ctrl.wrQLenPdf::25                     521                       # What write queue length does an incoming req see
system.mem_ctrl.wrQLenPdf::26                     522                       # What write queue length does an incoming req see
system.mem_ctrl.wrQLenPdf::27                     523                       # What write queue length does an incoming req see
system.mem_ctrl.wrQLenPdf::28                     521                       # What write queue length does an incoming req see
system.mem_ctrl.wrQLenPdf::29                     520                       # What write queue length does an incoming req see
system.mem_ctrl.wrQLenPdf::30                     520                       # What write queue length does an incoming req see
system.mem_ctrl.wrQLenPdf::31                     520                       # What write queue length does an incoming req see
system.mem_ctrl.wrQLenPdf::32                     520                       # What write queue length does an incoming req see
system.mem_ctrl.wrQLenPdf::33                       1                       # What write queue length does an incoming req see
system.mem_ctrl.wrQLenPdf::34                       0                       # What write queue length does an incoming req see
system.mem_ctrl.wrQLenPdf::35                       0                       # What write queue length does an incoming req see
system.mem_ctrl.wrQLenPdf::36                       0                       # What write queue length does an incoming req see
system.mem_ctrl.wrQLenPdf::37                       0                       # What write queue length does an incoming req see
system.mem_ctrl.wrQLenPdf::38                       0                       # What write queue length does an incoming req see
system.mem_ctrl.wrQLenPdf::39                       0                       # What write queue length does an incoming req see
system.mem_ctrl.wrQLenPdf::40                       0                       # What write queue length does an incoming req see
system.mem_ctrl.wrQLenPdf::41                       0                       # What write queue length does an incoming req see
system.mem_ctrl.wrQLenPdf::42                       0                       # What write queue length does an incoming req see
system.mem_ctrl.wrQLenPdf::43                       0                       # What write queue length does an incoming req see
system.mem_ctrl.wrQLenPdf::44                       0                       # What write queue length does an incoming req see
system.mem_ctrl.wrQLenPdf::45                       0                       # What write queue length does an incoming req see
system.mem_ctrl.wrQLenPdf::46                       0                       # What write queue length does an incoming req see
system.mem_ctrl.wrQLenPdf::47                       0                       # What write queue length does an incoming req see
system.mem_ctrl.wrQLenPdf::48                       0                       # What write queue length does an incoming req see
system.mem_ctrl.wrQLenPdf::49                       0                       # What write queue length does an incoming req see
system.mem_ctrl.wrQLenPdf::50                       0                       # What write queue length does an incoming req see
system.mem_ctrl.wrQLenPdf::51                       0                       # What write queue length does an incoming req see
system.mem_ctrl.wrQLenPdf::52                       0                       # What write queue length does an incoming req see
system.mem_ctrl.wrQLenPdf::53                       0                       # What write queue length does an incoming req see
system.mem_ctrl.wrQLenPdf::54                       0                       # What write queue length does an incoming req see
system.mem_ctrl.wrQLenPdf::55                       0                       # What write queue length does an incoming req see
system.mem_ctrl.wrQLenPdf::56                       0                       # What write queue length does an incoming req see
system.mem_ctrl.wrQLenPdf::57                       0                       # What write queue length does an incoming req see
system.mem_ctrl.wrQLenPdf::58                       0                       # What write queue length does an incoming req see
system.mem_ctrl.wrQLenPdf::59                       0                       # What write queue length does an incoming req see
system.mem_ctrl.wrQLenPdf::60                       0                       # What write queue length does an incoming req see
system.mem_ctrl.wrQLenPdf::61                       0                       # What write queue length does an incoming req see
system.mem_ctrl.wrQLenPdf::62                       0                       # What write queue length does an incoming req see
system.mem_ctrl.wrQLenPdf::63                       0                       # What write queue length does an incoming req see
system.mem_ctrl.bytesPerActivate::samples        96924                       # Bytes accessed per row activation
system.mem_ctrl.bytesPerActivate::mean     576.889439                       # Bytes accessed per row activation
system.mem_ctrl.bytesPerActivate::gmean    383.321820                       # Bytes accessed per row activation
system.mem_ctrl.bytesPerActivate::stdev    398.696871                       # Bytes accessed per row activation
system.mem_ctrl.bytesPerActivate::0-127         16549     17.07%     17.07% # Bytes accessed per row activation
system.mem_ctrl.bytesPerActivate::128-255        11140     11.49%     28.57% # Bytes accessed per row activation
system.mem_ctrl.bytesPerActivate::256-383        12209     12.60%     41.16% # Bytes accessed per row activation
system.mem_ctrl.bytesPerActivate::384-511         4778      4.93%     46.09% # Bytes accessed per row activation
system.mem_ctrl.bytesPerActivate::512-639         6451      6.66%     52.75% # Bytes accessed per row activation
system.mem_ctrl.bytesPerActivate::640-767         4093      4.22%     56.97% # Bytes accessed per row activation
system.mem_ctrl.bytesPerActivate::768-895         3317      3.42%     60.39% # Bytes accessed per row activation
system.mem_ctrl.bytesPerActivate::896-1023         2133      2.20%     62.60% # Bytes accessed per row activation
system.mem_ctrl.bytesPerActivate::1024-1151        36254     37.40%    100.00% # Bytes accessed per row activation
system.mem_ctrl.bytesPerActivate::total         96924                       # Bytes accessed per row activation
system.mem_ctrl.rdPerTurnAround::samples          520                       # Reads before turning the bus around for writes
system.mem_ctrl.rdPerTurnAround::mean     1662.451923                       # Reads before turning the bus around for writes
system.mem_ctrl.rdPerTurnAround::gmean     911.637077                       # Reads before turning the bus around for writes
system.mem_ctrl.rdPerTurnAround::stdev    1535.415246                       # Reads before turning the bus around for writes
system.mem_ctrl.rdPerTurnAround::0-511            164     31.54%     31.54% # Reads before turning the bus around for writes
system.mem_ctrl.rdPerTurnAround::512-1023           23      4.42%     35.96% # Reads before turning the bus around for writes
system.mem_ctrl.rdPerTurnAround::1024-1535           30      5.77%     41.73% # Reads before turning the bus around for writes
system.mem_ctrl.rdPerTurnAround::1536-2047          153     29.42%     71.15% # Reads before turning the bus around for writes
system.mem_ctrl.rdPerTurnAround::2048-2559           44      8.46%     79.62% # Reads before turning the bus around for writes
system.mem_ctrl.rdPerTurnAround::2560-3071           38      7.31%     86.92% # Reads before turning the bus around for writes
system.mem_ctrl.rdPerTurnAround::3072-3583           56     10.77%     97.69% # Reads before turning the bus around for writes
system.mem_ctrl.rdPerTurnAround::4096-4607            1      0.19%     97.88% # Reads before turning the bus around for writes
system.mem_ctrl.rdPerTurnAround::7168-7679            1      0.19%     98.08% # Reads before turning the bus around for writes
system.mem_ctrl.rdPerTurnAround::8704-9215            8      1.54%     99.62% # Reads before turning the bus around for writes
system.mem_ctrl.rdPerTurnAround::9216-9727            2      0.38%    100.00% # Reads before turning the bus around for writes
system.mem_ctrl.rdPerTurnAround::total            520                       # Reads before turning the bus around for writes
system.mem_ctrl.wrPerTurnAround::samples          520                       # Writes before turning the bus around for reads
system.mem_ctrl.wrPerTurnAround::mean       16.003846                       # Writes before turning the bus around for reads
system.mem_ctrl.wrPerTurnAround::gmean      16.003625                       # Writes before turning the bus around for reads
system.mem_ctrl.wrPerTurnAround::stdev       0.087706                       # Writes before turning the bus around for reads
system.mem_ctrl.wrPerTurnAround::16               519     99.81%     99.81% # Writes before turning the bus around for reads
system.mem_ctrl.wrPerTurnAround::18                 1      0.19%    100.00% # Writes before turning the bus around for reads
system.mem_ctrl.wrPerTurnAround::total            520                       # Writes before turning the bus around for reads
system.mem_ctrl.bytesReadDRAM                55385088                       # Total number of bytes read from DRAM
system.mem_ctrl.bytesReadWrQ                  2926976                       # Total number of bytes read from write queue
system.mem_ctrl.bytesWritten                   532608                       # Total number of bytes written to DRAM
system.mem_ctrl.bytesReadSys                 40927149                       # Total read bytes from the system interface side
system.mem_ctrl.bytesWrittenSys               1662217                       # Total written bytes from the system interface side
system.mem_ctrl.avgRdBW                       1595.26                       # Average DRAM read bandwidth in MiByte/s
system.mem_ctrl.avgWrBW                         15.34                       # Average achieved write bandwidth in MiByte/s
system.mem_ctrl.avgRdBWSys                    1178.83                       # Average system read bandwidth in MiByte/s
system.mem_ctrl.avgWrBWSys                      47.88                       # Average system write bandwidth in MiByte/s
system.mem_ctrl.peakBW                       12800.00                       # Theoretical peak bandwidth in MiByte/s
system.mem_ctrl.busUtil                         12.58                       # Data bus utilization in percentage
system.mem_ctrl.busUtilRead                     12.46                       # Data bus utilization in percentage for reads
system.mem_ctrl.busUtilWrite                     0.12                       # Data bus utilization in percentage for writes
system.mem_ctrl.totGap                    34718512000                       # Total gap between requests
system.mem_ctrl.avgGap                       29756.22                       # Average gap between requests
system.mem_ctrl.masterReadBytes::.cpu.inst     39036544                       # Per-master bytes read from memory
system.mem_ctrl.masterReadBytes::.cpu.data      1574031                       # Per-master bytes read from memory
system.mem_ctrl.masterWriteBytes::.cpu.data        62055                       # Per-master bytes write to memory
system.mem_ctrl.masterReadRate::.cpu.inst 1124372319.892313241959                       # Per-master bytes read from memory rate (Bytes/sec)
system.mem_ctrl.masterReadRate::.cpu.data 45336925.498640909791                       # Per-master bytes read from memory rate (Bytes/sec)
system.mem_ctrl.masterWriteRate::.cpu.data 1787374.525545025244                       # Per-master bytes write to memory rate (Bytes/sec)
system.mem_ctrl.masterReadAccesses::.cpu.inst       609946                       # Per-master read serviced memory accesses
system.mem_ctrl.masterReadAccesses::.cpu.data       301180                       # Per-master read serviced memory accesses
system.mem_ctrl.masterWriteAccesses::.cpu.data       255639                       # Per-master write serviced memory accesses
system.mem_ctrl.masterReadTotalLat::.cpu.inst  13716283000                       # Per-master read total memory access latency
system.mem_ctrl.masterReadTotalLat::.cpu.data   6568836000                       # Per-master read total memory access latency
system.mem_ctrl.masterWriteTotalLat::.cpu.data 902920101750                       # Per-master write total memory access latency
system.mem_ctrl.masterReadAvgLat::.cpu.inst     22487.70                       # Per-master read average memory access latency
system.mem_ctrl.masterReadAvgLat::.cpu.data     21810.33                       # Per-master read average memory access latency
system.mem_ctrl.masterWriteAvgLat::.cpu.data   3532012.34                       # Per-master write average memory access latency
system.mem_ctrl.pageHitRate                     88.90                       # Row buffer hit rate, read and write combined
system.mem_ctrl.rank1.actEnergy             238725900                       # Energy for activate commands per rank (pJ)
system.mem_ctrl.rank1.preEnergy             126866850                       # Energy for precharge commands per rank (pJ)
system.mem_ctrl.rank1.readEnergy           2214749460                       # Energy for read commands per rank (pJ)
system.mem_ctrl.rank1.writeEnergy            28396800                       # Energy for write commands per rank (pJ)
system.mem_ctrl.rank1.refreshEnergy      2740065120.000000                       # Energy for refresh commands per rank (pJ)
system.mem_ctrl.rank1.actBackEnergy       15080655870                       # Energy for active background per rank (pJ)
system.mem_ctrl.rank1.preBackEnergy         632412480                       # Energy for precharge background per rank (pJ)
system.mem_ctrl.rank1.actPowerDownEnergy            0                       # Energy for active power-down per rank (pJ)
system.mem_ctrl.rank1.prePowerDownEnergy            0                       # Energy for precharge power-down per rank (pJ)
system.mem_ctrl.rank1.selfRefreshEnergy             0                       # Energy for self refresh per rank (pJ)
system.mem_ctrl.rank1.totalEnergy         21061872480                       # Total energy per rank (pJ)
system.mem_ctrl.rank1.averagePower         606.646593                       # Core power per rank (mW)
system.mem_ctrl.rank1.totalIdleTime                 0                       # Total Idle time Per DRAM Rank
system.mem_ctrl.rank1.memoryStateTime::IDLE   1514420750                       # Time in different power states
system.mem_ctrl.rank1.memoryStateTime::REF   1159080000                       # Time in different power states
system.mem_ctrl.rank1.memoryStateTime::SREF            0                       # Time in different power states
system.mem_ctrl.rank1.memoryStateTime::PRE_PDN            0                       # Time in different power states
system.mem_ctrl.rank1.memoryStateTime::ACT  32045020250                       # Time in different power states
system.mem_ctrl.rank1.memoryStateTime::ACT_PDN            0                       # Time in different power states
system.mem_ctrl.rank0.actEnergy             453368580                       # Energy for activate commands per rank (pJ)
system.mem_ctrl.rank0.preEnergy             240959730                       # Energy for precharge commands per rank (pJ)
system.mem_ctrl.rank0.readEnergy           3964149420                       # Energy for read commands per rank (pJ)
system.mem_ctrl.rank0.writeEnergy            15044040                       # Energy for write commands per rank (pJ)
system.mem_ctrl.rank0.refreshEnergy      2740065120.000000                       # Energy for refresh commands per rank (pJ)
system.mem_ctrl.rank0.actBackEnergy       14161691040                       # Energy for active background per rank (pJ)
system.mem_ctrl.rank0.preBackEnergy        1406277600                       # Energy for precharge background per rank (pJ)
system.mem_ctrl.rank0.actPowerDownEnergy            0                       # Energy for active power-down per rank (pJ)
system.mem_ctrl.rank0.prePowerDownEnergy            0                       # Energy for precharge power-down per rank (pJ)
system.mem_ctrl.rank0.selfRefreshEnergy             0                       # Energy for self refresh per rank (pJ)
system.mem_ctrl.rank0.totalEnergy         22981555530                       # Total energy per rank (pJ)
system.mem_ctrl.rank0.averagePower         661.939359                       # Core power per rank (mW)
system.mem_ctrl.rank0.totalIdleTime                 0                       # Total Idle time Per DRAM Rank
system.mem_ctrl.rank0.memoryStateTime::IDLE   3521934500                       # Time in different power states
system.mem_ctrl.rank0.memoryStateTime::REF   1159080000                       # Time in different power states
system.mem_ctrl.rank0.memoryStateTime::SREF            0                       # Time in different power states
system.mem_ctrl.rank0.memoryStateTime::PRE_PDN            0                       # Time in different power states
system.mem_ctrl.rank0.memoryStateTime::ACT  30037506500                       # Time in different power states
system.mem_ctrl.rank0.memoryStateTime::ACT_PDN            0                       # Time in different power states
system.clk_domain.clock                          1000                       # Clock period in ticks
system.clk_domain.voltage_domain.voltage            1                       # Voltage in Volts
system.cpu.pwrStateResidencyTicks::ON     34718521000                       # Cumulative time (in ticks) in various power states

---------- End Simulation Statistics   ----------
